
OS:Version,
  {9fa3a22c-4184-4710-891f-c4a22c411e96}, !- Handle
  1.4.0;                                  !- Version Identifier

OS:ClimateZones,
  {135edfab-17e7-40db-a436-27d385a8cd6d}, !- Handle
  ,                                       !- Active Institution
  ,                                       !- Active Year
  ASHRAE,                                 !- Climate Zone Institution Name 1
  ANSI/ASHRAE Standard 169,               !- Climate Zone Document Name 1
  2006,                                   !- Climate Zone Document Year 1
  ,                                       !- Climate Zone Value 1
  CEC,                                    !- Climate Zone Institution Name 2
  California Climate Zone Descriptions,   !- Climate Zone Document Name 2
  1995,                                   !- Climate Zone Document Year 2
  ;                                       !- Climate Zone Value 2

OS:YearDescription,
  {513d8dda-86cb-442a-b01c-1f7f0e0ac70e}, !- Handle
  2013,                                   !- Calendar Year
  ,                                       !- Day of Week for Start Day
  ;                                       !- Is Leap Year

OS:RadianceParameters,
  {270a96f1-3c86-4b75-a667-cdf22790e2c8}, !- Handle
  1,                                      !- Accumulated Rays per Record
  0,                                      !- Direct Threshold
  1,                                      !- Direct Certainty
  1,                                      !- Direct Jitter
  1,                                      !- Direct Pretest
  6,                                      !- Ambient Bounces VMX
  2,                                      !- Ambient Bounces DMX
  4050,                                   !- Ambient Divisions VMX
  512,                                    !- Ambient Divisions DMX
  256,                                    !- Ambient Supersamples
  0.001,                                  !- Limit Weight VMX
  0.001,                                  !- Limit Weight DMX
  500,                                    !- Klems Sampling Density
  146;                                    !- Sky Discretization Resolution

OS:SimulationControl,
  {2c487a4c-bac9-4ac5-b669-1e49d9da7c2b}; !- Handle

OS:Sizing:Parameters,
  {dde5af6f-7923-4600-a28a-7556673a0266}, !- Handle
  1.25,                                   !- Heating Sizing Factor
  1.15;                                   !- Cooling Sizing Factor

OS:ProgramControl,
  {05027a99-f2b3-4aeb-afc6-1425fbb4371d}; !- Handle

OS:Timestep,
  {4ebc9f1e-4707-402e-9844-67eb1ffbd522}, !- Handle
  6;                                      !- Number of Timesteps per Hour

OS:OutputControl:ReportingTolerances,
  {65797aa2-06a9-45fe-b69d-bc6e060399d3}; !- Handle

OS:ConvergenceLimits,
  {9fc11aba-8822-4f3d-970c-46391ba4040d}; !- Handle

OS:ShadowCalculation,
  {ca758bea-4416-4626-9bba-3d8795c79bd6}, !- Handle
  7,                                      !- Calculation Frequency
  15000;                                  !- Maximum Figures in Shadow Overlap Calculations

OS:SurfaceConvectionAlgorithm:Inside,
  {aaabfc36-718a-4ab0-b622-f186ebb45230}, !- Handle
  TARP;                                   !- Algorithm

OS:SurfaceConvectionAlgorithm:Outside,
  {9a0a9f6f-4bbd-4b12-a121-9492a1fcd7d6}, !- Handle
  DOE-2;                                  !- Algorithm

OS:HeatBalanceAlgorithm,
  {9d93e563-e1e0-46d7-9e39-d1c8aceb7212}, !- Handle
  ConductionTransferFunction,             !- Algorithm
  200;                                    !- Surface Temperature Upper Limit {F}

OS:ZoneAirHeatBalanceAlgorithm,
  {8520d93e-310f-4696-9bcd-36228bfdd743}, !- Handle
  AnalyticalSolution;                     !- Algorithm

OS:ZoneAirContaminantBalance,
  {eb5fc3ae-fb22-4160-8fcb-3e3b22b000d3}; !- Handle

OS:ZoneCapacitanceMultiplier:ResearchSpecial,
  {4020ce4f-5a7a-4849-8028-8305d7b751b1}, !- Handle
  ,                                       !- Temperature Capacity Multiplier
  ,                                       !- Humidity Capacity Multiplier
  ;                                       !- Carbon Dioxide Capacity Multiplier

OS:RunPeriod,
  {28df894d-6af9-4fb8-8f56-df1753344aa3}, !- Handle
  Run Period 1,                           !- Name
  1,                                      !- Begin Month
  21,                                     !- Begin Day of Month
  12,                                     !- End Month
  21,                                     !- End Day of Month
  ,                                       !- Use Weather File Holidays and Special Days
  ,                                       !- Use Weather File Daylight Saving Period
  ,                                       !- Apply Weekend Holiday Rule
  ,                                       !- Use Weather File Rain Indicators
  ,                                       !- Use Weather File Snow Indicators
  ;                                       !- Number of Times Runperiod to be Repeated

OS:Building,
  {bf305633-c5a1-4881-9edf-ca5e1a8e1274}, !- Handle
  Building 1,                             !- Name
  ,                                       !- Building Sector Type
  ,                                       !- North Axis {deg}
  ,                                       !- Nominal Floor to Floor Height {m}
  ,                                       !- Space Type Name
  {f326e160-fc93-454e-87d5-8bd277c289b1}, !- Default Construction Set Name
  ;                                       !- Default Schedule Set Name

OS:WeatherFile,
  {4a16967c-bd1c-4970-b7b2-f8cb747f0bea}, !- Handle
  Boston Logan IntL Arpt,                 !- City
  MA,                                     !- State Province Region
  USA,                                    !- Country
  TMY3,                                   !- Data Source
  725090,                                 !- WMO Number
  42.37,                                  !- Latitude {deg}
  -71.02,                                 !- Longitude {deg}
  -5,                                     !- Time Zone {hr}
  6,                                      !- Elevation {m}
  file:///mnt/openstudio/analysis_3fbf3af1-dabc-0131-aeb2-00ff1036fe0a/weather/USA_MA_Boston-Logan.Intl.AP.725090_TMY3.epw, !- Url
  B65824C3;                               !- Checksum

OS:Site,
  {c603abdb-8da5-4504-9043-1743375c348f}, !- Handle
  Boston Logan IntL Arpt_MA_USA,          !- Name
  42.37,                                  !- Latitude {deg}
  -71.02,                                 !- Longitude {deg}
  -5,                                     !- Time Zone {hr}
  6,                                      !- Elevation {m}
  ;                                       !- Terrain

OS:Site:GroundTemperature:BuildingSurface,
  {5f1c9bec-2a6c-42b0-9029-876c76dd7daa}, !- Handle
  19.527,                                 !- January Ground Temperature {C}
  19.502,                                 !- February Ground Temperature {C}
  19.536,                                 !- March Ground Temperature {C}
  19.598,                                 !- April Ground Temperature {C}
  20.002,                                 !- May Ground Temperature {C}
  21.64,                                  !- June Ground Temperature {C}
  22.225,                                 !- July Ground Temperature {C}
  22.375,                                 !- August Ground Temperature {C}
  21.449,                                 !- September Ground Temperature {C}
  20.121,                                 !- October Ground Temperature {C}
  19.802,                                 !- November Ground Temperature {C}
  19.633;                                 !- December Ground Temperature {C}

OS:Site:WaterMainsTemperature,
  {3f54608e-1d56-4b1d-b901-a9872726a279}, !- Handle
  Correlation,                            !- Calculation Method
  ,                                       !- Temperature Schedule Name
  10.55,                                  !- Annual Average Outdoor Air Temperature {C}
  26.4;                                   !- Maximum Difference In Monthly Average Outdoor Air Temperatures {deltaC}

OS:SizingPeriod:DesignDay,
  {c0ddce17-ce0d-41a0-bad7-69261bd0b55e}, !- Handle
  Boston Logan IntL Arpt Ann Clg .4% Condns DB=>MWB, !- Name
  32.7,                                   !- Maximum Dry-Bulb Temperature {C}
  8.4,                                    !- Daily Dry-Bulb Temperature Range {deltaC}
  22.9,                                   !- Humidity Indicating Conditions at Maximum Dry-Bulb {BasedOnField A3}
  101253,                                 !- Barometric Pressure {Pa}
  6.3,                                    !- Wind Speed {m/s}
  270,                                    !- Wind Direction {deg}
  0,                                      !- Sky Clearness
  0,                                      !- Rain Indicator
  0,                                      !- Snow Indicator
  21,                                     !- Day of Month
  7,                                      !- Month
  SummerDesignDay,                        !- Day Type
  0,                                      !- Daylight Saving Time Indicator
  Wetbulb,                                !- Humidity Indicating Type
  ,                                       !- Humidity Indicating Day Schedule Name
  DefaultMultipliers,                     !- Dry-Bulb Temperature Range Modifier Type
  ,                                       !- Dry-Bulb Temperature Range Modifier Schedule Name
  ASHRAETau,                              !- Solar Model Indicator
  ,                                       !- Beam Solar Day Schedule Name
  ,                                       !- Diffuse Solar Day Schedule Name
  0.488,                                  !- ASHRAE Taub {dimensionless}
  1.95;                                   !- ASHRAE Taud {dimensionless}

OS:SizingPeriod:DesignDay,
  {d6191116-3ba1-4b70-ae4b-41e7251e5c3a}, !- Handle
  Boston Logan IntL Arpt Ann Clg .4% Condns WB=>MDB, !- Name
  30.2,                                   !- Maximum Dry-Bulb Temperature {C}
  8.4,                                    !- Daily Dry-Bulb Temperature Range {deltaC}
  24.6,                                   !- Humidity Indicating Conditions at Maximum Dry-Bulb {BasedOnField A3}
  101253,                                 !- Barometric Pressure {Pa}
  6.3,                                    !- Wind Speed {m/s}
  270,                                    !- Wind Direction {deg}
  0,                                      !- Sky Clearness
  0,                                      !- Rain Indicator
  0,                                      !- Snow Indicator
  21,                                     !- Day of Month
  7,                                      !- Month
  SummerDesignDay,                        !- Day Type
  0,                                      !- Daylight Saving Time Indicator
  Wetbulb,                                !- Humidity Indicating Type
  ,                                       !- Humidity Indicating Day Schedule Name
  DefaultMultipliers,                     !- Dry-Bulb Temperature Range Modifier Type
  ,                                       !- Dry-Bulb Temperature Range Modifier Schedule Name
  ASHRAETau,                              !- Solar Model Indicator
  ,                                       !- Beam Solar Day Schedule Name
  ,                                       !- Diffuse Solar Day Schedule Name
  0.488,                                  !- ASHRAE Taub {dimensionless}
  1.95;                                   !- ASHRAE Taud {dimensionless}

OS:SizingPeriod:DesignDay,
  {3f431c27-cce8-446c-86a2-1252e8b5787d}, !- Handle
  Boston Logan IntL Arpt Ann Htg 99.6% Condns DB, !- Name
  -13.6,                                  !- Maximum Dry-Bulb Temperature {C}
  0,                                      !- Daily Dry-Bulb Temperature Range {deltaC}
  -13.6,                                  !- Humidity Indicating Conditions at Maximum Dry-Bulb {BasedOnField A3}
  101253,                                 !- Barometric Pressure {Pa}
  7.2,                                    !- Wind Speed {m/s}
  320,                                    !- Wind Direction {deg}
  0,                                      !- Sky Clearness
  0,                                      !- Rain Indicator
  0,                                      !- Snow Indicator
  21,                                     !- Day of Month
  1,                                      !- Month
  WinterDesignDay,                        !- Day Type
  0,                                      !- Daylight Saving Time Indicator
  Wetbulb,                                !- Humidity Indicating Type
  ,                                       !- Humidity Indicating Day Schedule Name
  DefaultMultipliers,                     !- Dry-Bulb Temperature Range Modifier Type
  ,                                       !- Dry-Bulb Temperature Range Modifier Schedule Name
  ASHRAEClearSky;                         !- Solar Model Indicator

OS:SpaceType,
  {97520e70-471d-47f3-ad9c-8dc924cc6170}, !- Handle
  DOE Ref 2004 - Office - BreakRoom,      !- Name
  ,                                       !- Default Construction Set Name
  {25e9e6e2-fdec-4c10-b60a-2a90dd5c8ae9}, !- Default Schedule Set Name
  {bf868e5b-03f4-4047-a054-8343ff4a429e}, !- Group Rendering Name
  {0ed098b5-6c82-457c-be3c-6978224177b3}, !- Design Specification Outdoor Air Object Name
  Office,                                 !- Standards Building Type
  BreakRoom;                              !- Standards Space Type

OS:Rendering:Color,
  {bf868e5b-03f4-4047-a054-8343ff4a429e}, !- Handle
  Rendering Color 1,                      !- Name
  230,                                    !- Rendering Red Value
  157,                                    !- Rendering Green Value
  120;                                    !- Rendering Blue Value

OS:DefaultScheduleSet,
  {25e9e6e2-fdec-4c10-b60a-2a90dd5c8ae9}, !- Handle
  DOE Ref 2004 - Office - BreakRoom Schedule Set, !- Name
  ,                                       !- Hours of Operation Schedule Name
  {eca73863-4255-450c-8519-943e994b41ad}, !- Number of People Schedule Name
  {afd05818-0e8d-4140-9351-7b091655980e}, !- People Activity Level Schedule Name
  {f8517846-d28c-41f7-956b-174553a1362b}, !- Lighting Schedule Name
  {8e2ae690-874e-4910-a3fb-711d0a35dee6}, !- Electric Equipment Schedule Name
  ,                                       !- Gas Equipment Schedule Name
  ,                                       !- Hot Water Equipment Schedule Name
  {88f65c4e-7293-4cb1-9d43-b926571291f2}, !- Infiltration Schedule Name
  ,                                       !- Steam Equipment Schedule Name
  ;                                       !- Other Equipment Schedule Name

OS:Lights:Definition,
  {4550f8ee-7904-4db9-9fa1-493b01a5b70d}, !- Handle
  DOE Ref 2004 - Office - BreakRoom Lights Definition, !- Name
  Watts/Area,                             !- Design Level Calculation Method
  ,                                       !- Lighting Level {W}
  12.9166925000517,                       !- Watts per Space Floor Area {W/m2}
  ;                                       !- Watts per Person {W/person}

OS:Schedule:Ruleset,
  {f8517846-d28c-41f7-956b-174553a1362b}, ! Handle
  Office Bldg Light,                      ! Name
  {7ee0e9eb-2a89-4565-812c-608d9d0d3e4e}, ! Schedule Type Limits Name
  {2977db15-9d68-413a-9b1b-e7f46d12d6c8}, ! Default Day Schedule Name
  {d500b0a8-4026-4f43-be1c-4b45d6d32d48}, ! Summer Design Day Schedule Name
  {31d8659d-4656-4094-afe1-02685c42c9c9}; ! Winter Design Day Schedule Name

OS:ScheduleTypeLimits,
  {7ee0e9eb-2a89-4565-812c-608d9d0d3e4e}, ! Handle
  Fraction,                               ! Name
  0,                                      ! Lower Limit Value
  1,                                      ! Upper Limit Value
  CONTINUOUS;                             ! Numeric Type

OS:Schedule:Day,
  {2977db15-9d68-413a-9b1b-e7f46d12d6c8}, ! Handle
  Office Bldg Light Default Schedule,     ! Name
  {7ee0e9eb-2a89-4565-812c-608d9d0d3e4e}, ! Schedule Type Limits Name
  ,                                       ! Interpolate to Timestep
  5,                                      !- Hour 1
  0,                                      !- Minute 1
  0.05,                                   !- Value Until Time 1
  7,                                      !- Hour 2
  0,                                      !- Minute 2
  0.1,                                    !- Value Until Time 2
  8,                                      !- Hour 3
  0,                                      !- Minute 3
  0.3,                                    !- Value Until Time 3
  17,                                     !- Hour 4
  0,                                      !- Minute 4
  0.9,                                    !- Value Until Time 4
  18,                                     !- Hour 5
  0,                                      !- Minute 5
  0.7,                                    !- Value Until Time 5
  20,                                     !- Hour 6
  0,                                      !- Minute 6
  0.5,                                    !- Value Until Time 6
  22,                                     !- Hour 7
  0,                                      !- Minute 7
  0.3,                                    !- Value Until Time 7
  23,                                     !- Hour 8
  0,                                      !- Minute 8
  0.1,                                    !- Value Until Time 8
  24,                                     !- Hour 9
  0,                                      !- Minute 9
  0.05;                                   !- Value Until Time 9

OS:Schedule:Day,
  {d500b0a8-4026-4f43-be1c-4b45d6d32d48}, ! Handle
  Office Bldg Light Summer Design Day,    ! Name
  {7ee0e9eb-2a89-4565-812c-608d9d0d3e4e}, ! Schedule Type Limits Name
  ,                                       ! Interpolate to Timestep
  24,                                     ! Hour 1
  0,                                      ! Minute 1
  1;                                      ! Value Until Time 1

OS:Schedule:Day,
  {31d8659d-4656-4094-afe1-02685c42c9c9}, ! Handle
  Office Bldg Light Winter Design Day,    ! Name
  {7ee0e9eb-2a89-4565-812c-608d9d0d3e4e}, ! Schedule Type Limits Name
  ,                                       ! Interpolate to Timestep
  24,                                     ! Hour 1
  0,                                      ! Minute 1
  0;                                      ! Value Until Time 1

OS:Schedule:Rule,
  {14c99d7f-4194-431c-9bb1-5a9ed70089ee}, ! Handle
  Office Bldg Light Rule 1,               ! Name
  {f8517846-d28c-41f7-956b-174553a1362b}, ! Schedule Ruleset Name
  0,                                      ! Rule Order
  {d1bad851-bb59-427f-b730-2761d291320c}, ! Day Schedule Name
  Yes,                                    ! Apply Sunday
  No,                                     ! Apply Monday
  No,                                     ! Apply Tuesday
  No,                                     ! Apply Wednesday
  No,                                     ! Apply Thursday
  No,                                     ! Apply Friday
  No,                                     ! Apply Saturday
  ,                                       ! Apply Holiday
  DateRange,                              ! Date Specification Type
  1,                                      ! Start Month
  1,                                      ! Start Day
  12,                                     ! End Month
  31;                                     ! End Day

OS:Schedule:Day,
  {d1bad851-bb59-427f-b730-2761d291320c}, ! Handle
  Office Bldg Light Rule 1 Day Schedule,  ! Name
  {7ee0e9eb-2a89-4565-812c-608d9d0d3e4e}, ! Schedule Type Limits Name
  ,                                       ! Interpolate to Timestep
  24,                                     ! Hour 1
  0,                                      ! Minute 1
  0.050000000000000003;                   ! Value Until Time 1

OS:Schedule:Rule,
  {9301bae8-13b5-436f-ac2e-b41dd5a31eb0}, ! Handle
  Office Bldg Light Rule 2,               ! Name
  {f8517846-d28c-41f7-956b-174553a1362b}, ! Schedule Ruleset Name
  1,                                      ! Rule Order
  {f0806b35-cdcb-4550-97d6-c8617d5a1717}, ! Day Schedule Name
  No,                                     ! Apply Sunday
  No,                                     ! Apply Monday
  No,                                     ! Apply Tuesday
  No,                                     ! Apply Wednesday
  No,                                     ! Apply Thursday
  No,                                     ! Apply Friday
  Yes,                                    ! Apply Saturday
  ,                                       ! Apply Holiday
  DateRange,                              ! Date Specification Type
  1,                                      ! Start Month
  1,                                      ! Start Day
  12,                                     ! End Month
  31;                                     ! End Day

OS:Schedule:Day,
  {f0806b35-cdcb-4550-97d6-c8617d5a1717}, ! Handle
  Office Bldg Light Rule 2 Day Schedule,  ! Name
  {7ee0e9eb-2a89-4565-812c-608d9d0d3e4e}, ! Schedule Type Limits Name
  ,                                       ! Interpolate to Timestep
  6,                                      ! Hour 1
  0,                                      ! Minute 1
  0.050000000000000003,                   ! Value Until Time 1
  8,                                      ! Hour 2
  0,                                      ! Minute 2
  0.10000000000000001,                    ! Value Until Time 2
  14,                                     ! Hour 3
  0,                                      ! Minute 3
  0.5,                                    ! Value Until Time 3
  17,                                     ! Hour 4
  0,                                      ! Minute 4
  0.14999999999999999,                    ! Value Until Time 4
  24,                                     ! Hour 5
  0,                                      ! Minute 5
  0.050000000000000003;                   ! Value Until Time 5

OS:DesignSpecification:OutdoorAir,
  {0ed098b5-6c82-457c-be3c-6978224177b3}, !- Handle
  DOE Ref 2004 - Office - BreakRoom Ventilation, !- Name
  Sum,                                    !- Outdoor Air Method
  0.007079211648,                         !- Outdoor Air Flow per Person {m3/s-person}
  ,                                       !- Outdoor Air Flow per Floor Area {m3/s-m2}
  ,                                       !- Outdoor Air Flow Rate {m3/s}
  ,                                       !- Outdoor Air Flow Air Changes per Hour {1/hr}
  ;                                       !- Outdoor Air Flow Rate Fraction Schedule Name

OS:People:Definition,
  {7c024ead-f042-4e37-8925-4d0f10584ad0}, !- Handle
  DOE Ref 2004 - Office - BreakRoom People Definition, !- Name
  People/Area,                            !- Number of People Calculation Method
  ,                                       !- Number of People {people}
  0.538195520835486,                      !- People per Space Floor Area {person/m2}
  ,                                       !- Space Floor Area per Person {m2/person}
  0.3;                                    !- Fraction Radiant

OS:People,
  {c93ac6ed-2d1c-4b09-b1ca-208ab8526ba4}, !- Handle
  DOE Ref 2004 - Office - BreakRoom People, !- Name
  {7c024ead-f042-4e37-8925-4d0f10584ad0}, !- People Definition Name
  {97520e70-471d-47f3-ad9c-8dc924cc6170}; !- Space or SpaceType Name

OS:Schedule:Ruleset,
  {eca73863-4255-450c-8519-943e994b41ad}, ! Handle
  Office Misc Occ,                        ! Name
  {7ee0e9eb-2a89-4565-812c-608d9d0d3e4e}, ! Schedule Type Limits Name
  {7f215488-bdf2-4c19-b42a-4f641edbaaf2}, ! Default Day Schedule Name
  {81a0faca-7fd2-4bf2-8739-295ddf6b443c}, ! Summer Design Day Schedule Name
  {5ac0e8cd-46c2-4ae6-be6f-d0a763d5e1c9}; ! Winter Design Day Schedule Name

OS:Schedule:Day,
  {7f215488-bdf2-4c19-b42a-4f641edbaaf2}, ! Handle
  Office Bldg Occ Default Schedule 1,     ! Name
  {7ee0e9eb-2a89-4565-812c-608d9d0d3e4e}, ! Schedule Type Limits Name
  ,                                       ! Interpolate to Timestep
  6,                                      !- Hour 1
  0,                                      !- Minute 1
  0,                                      !- Value Until Time 1
  7,                                      !- Hour 2
  0,                                      !- Minute 2
  0.100000001490116,                      !- Value Until Time 2
  8,                                      !- Hour 3
  0,                                      !- Minute 3
  0.200000002980232,                      !- Value Until Time 3
  20,                                     !- Hour 4
  0,                                      !- Minute 4
  0.400000005960464,                      !- Value Until Time 4
  22,                                     !- Hour 5
  0,                                      !- Minute 5
  0.100000001490116,                      !- Value Until Time 5
  24,                                     !- Hour 6
  0,                                      !- Minute 6
  0.0500000007450581;                     !- Value Until Time 6

OS:Schedule:Day,
  {81a0faca-7fd2-4bf2-8739-295ddf6b443c}, ! Handle
  Office Bldg Occ Summer Design Day 1,    ! Name
  {7ee0e9eb-2a89-4565-812c-608d9d0d3e4e}, ! Schedule Type Limits Name
  ,                                       ! Interpolate to Timestep
  6,                                      ! Hour 1
  0,                                      ! Minute 1
  0,                                      ! Value Until Time 1
  22,                                     ! Hour 2
  0,                                      ! Minute 2
  1,                                      ! Value Until Time 2
  24,                                     ! Hour 3
  0,                                      ! Minute 3
  0.050000000000000003;                   ! Value Until Time 3

OS:Schedule:Day,
  {5ac0e8cd-46c2-4ae6-be6f-d0a763d5e1c9}, ! Handle
  Office Bldg Occ Winter Design Day 1,    ! Name
  {7ee0e9eb-2a89-4565-812c-608d9d0d3e4e}, ! Schedule Type Limits Name
  ,                                       ! Interpolate to Timestep
  24,                                     ! Hour 1
  0,                                      ! Minute 1
  0;                                      ! Value Until Time 1

OS:Schedule:Rule,
  {a55d213d-d608-498d-9b2b-3f57277e94fc}, ! Handle
  Office Misc Occ Rule 1,                 ! Name
  {eca73863-4255-450c-8519-943e994b41ad}, ! Schedule Ruleset Name
  0,                                      ! Rule Order
  {0ea8f5c0-29c0-4e21-bed4-8bcd051b601f}, ! Day Schedule Name
  Yes,                                    ! Apply Sunday
  No,                                     ! Apply Monday
  No,                                     ! Apply Tuesday
  No,                                     ! Apply Wednesday
  No,                                     ! Apply Thursday
  No,                                     ! Apply Friday
  No,                                     ! Apply Saturday
  ,                                       ! Apply Holiday
  DateRange,                              ! Date Specification Type
  1,                                      ! Start Month
  1,                                      ! Start Day
  12,                                     ! End Month
  31;                                     ! End Day

OS:Schedule:Day,
  {0ea8f5c0-29c0-4e21-bed4-8bcd051b601f}, ! Handle
  Office Bldg Occ Rule 1 Day Schedule 1,  ! Name
  {7ee0e9eb-2a89-4565-812c-608d9d0d3e4e}, ! Schedule Type Limits Name
  ,                                       ! Interpolate to Timestep
  24,                                     ! Hour 1
  0,                                      ! Minute 1
  0;                                      ! Value Until Time 1

OS:Schedule:Rule,
  {b5acbace-a6d8-4810-af8d-f916c66d84e8}, ! Handle
  Office Misc Occ Rule 2,                 ! Name
  {eca73863-4255-450c-8519-943e994b41ad}, ! Schedule Ruleset Name
  1,                                      ! Rule Order
  {ff940088-d0bb-4eb9-8bc8-eaecba9ee679}, ! Day Schedule Name
  No,                                     ! Apply Sunday
  No,                                     ! Apply Monday
  No,                                     ! Apply Tuesday
  No,                                     ! Apply Wednesday
  No,                                     ! Apply Thursday
  No,                                     ! Apply Friday
  Yes,                                    ! Apply Saturday
  ,                                       ! Apply Holiday
  DateRange,                              ! Date Specification Type
  1,                                      ! Start Month
  1,                                      ! Start Day
  12,                                     ! End Month
  31;                                     ! End Day

OS:Schedule:Day,
  {ff940088-d0bb-4eb9-8bc8-eaecba9ee679}, ! Handle
  Office Bldg Occ Rule 2 Day Schedule 1,  ! Name
  {7ee0e9eb-2a89-4565-812c-608d9d0d3e4e}, ! Schedule Type Limits Name
  ,                                       ! Interpolate to Timestep
  6,                                      !- Hour 1
  0,                                      !- Minute 1
  0,                                      !- Value Until Time 1
  8,                                      !- Hour 2
  0,                                      !- Minute 2
  0.100000001490116,                      !- Value Until Time 2
  14,                                     !- Hour 3
  0,                                      !- Minute 3
  0.25,                                   !- Value Until Time 3
  17,                                     !- Hour 4
  0,                                      !- Minute 4
  0.100000001490116,                      !- Value Until Time 4
  24,                                     !- Hour 5
  0,                                      !- Minute 5