
OS:Version,
  {c83e842d-9dd5-4ede-8583-3dd7844281cc}, !- Handle
  1.6.0;                                  !- Version Identifier

OS:ClimateZones,
  {00dda828-8d9d-4465-bd4d-0c0c556ea992}, !- Handle
  ,                                       !- Active Institution
  ,                                       !- Active Year
  ASHRAE,                                 !- Climate Zone Institution Name 1
  ANSI/ASHRAE Standard 169,               !- Climate Zone Document Name 1
  2006,                                   !- Climate Zone Document Year 1
  ,                                       !- Climate Zone Value 1
  CEC,                                    !- Climate Zone Institution Name 2
  California Climate Zone Descriptions,   !- Climate Zone Document Name 2
  1995,                                   !- Climate Zone Document Year 2
  ;                                       !- Climate Zone Value 2

OS:LifeCycleCost:Parameters,
  {6a4fbf89-81ad-4d65-b366-afd317fb7f33}, !- Handle
  FEMP,                                   !- Analysis Type
  ,                                       !- Discounting Convention
  ,                                       !- Inflation Approach
  ,                                       !- Real Discount Rate
  ,                                       !- Nominal Discount Rate
  ,                                       !- Inflation
  ,                                       !- Base Date Month
  ,                                       !- Base Date Year
  ,                                       !- Service Date Month
  ,                                       !- Service Date Year
  ,                                       !- Length of Study Period in Years
  ,                                       !- Tax Rate
  ,                                       !- Depreciation Method
  Yes;                                    !- Use NIST Fuel Escalation Rates

OS:YearDescription,
  {6db9d436-efda-4d1c-99cd-5e575aafcf98}; !- Handle

OS:Building,
  {aed50290-79f3-49ec-b232-91325ed1b660}, !- Handle
  Building 1,                             !- Name
  ,                                       !- Building Sector Type
  ,                                       !- North Axis {deg}
  ,                                       !- Nominal Floor to Floor Height {m}
  {cef6772d-1675-4e5f-b899-deb7bd8c4eb5}, !- Space Type Name
  {6865d689-a3bf-4239-8bc6-64aaeb29d04e}, !- Default Construction Set Name
  ;                                       !- Default Schedule Set Name

OS:Facility,
  {57faeb43-443e-4961-8221-fe11336fdc41}; !- Handle

OS:SpaceType,
  {6222916a-99d0-4069-bc46-017ad76f7ce1}, !- Handle
  DOE Ref 2004 - LrgHotel - Banquet,      !- Name
  ,                                       !- Default Construction Set Name
  {f993ce0c-ad11-4688-9b2c-161ea06fc01e}, !- Default Schedule Set Name
  {2c04e58f-09eb-48b2-99bb-aab55ce1e09f}, !- Group Rendering Name
  {8b32836c-715a-449d-b421-4de3cf560b5c}, !- Design Specification Outdoor Air Object Name
  LargeHotel,                             !- Standards Building Type
  Banquet;                                !- Standards Space Type

OS:Rendering:Color,
  {2c04e58f-09eb-48b2-99bb-aab55ce1e09f}, !- Handle
  Rendering Color 1,                      !- Name
  230,                                    !- Rendering Red Value
  196,                                    !- Rendering Green Value
  120;                                    !- Rendering Blue Value

OS:DefaultScheduleSet,
  {f993ce0c-ad11-4688-9b2c-161ea06fc01e}, !- Handle
  DOE Ref 2004 - LrgHotel - Banquet Schedule Set, !- Name
  ,                                       !- Hours of Operation Schedule Name
  {320738cd-e335-414d-b289-4e0f0e609ae4}, !- Number of People Schedule Name
  {a3398078-f120-4ae2-af5d-2fe6961a71ec}, !- People Activity Level Schedule Name
  {88e186af-b6ba-4409-9454-716c7f773b30}, !- Lighting Schedule Name
  {146de4b2-54fc-4c51-a95e-f9f640dcec89}, !- Electric Equipment Schedule Name
  ,                                       !- Gas Equipment Schedule Name
  ,                                       !- Hot Water Equipment Schedule Name
  {629f4d0e-1ff7-4620-9827-722130c0e392}, !- Infiltration Schedule Name
  ,                                       !- Steam Equipment Schedule Name
  ;                                       !- Other Equipment Schedule Name

OS:Lights:Definition,
  {a37f2606-a655-4082-8cdd-a6214cab8e5c}, !- Handle
  DOE Ref 2004 - LrgHotel - Banquet Lights Definition, !- Name
  Watts/Area,                             !- Design Level Calculation Method
  ,                                       !- Lighting Level {W}
  13.9930835417226,                       !- Watts per Space Floor Area {W/m2}
  ;                                       !- Watts per Person {W/person}

OS:Lights,
  {258379ca-c239-43f3-8f20-cd52c7a970fd}, !- Handle
  DOE Ref 2004 - LrgHotel - Banquet Lights, !- Name
  {a37f2606-a655-4082-8cdd-a6214cab8e5c}, !- Lights Definition Name
  {6222916a-99d0-4069-bc46-017ad76f7ce1}; !- Space or SpaceType Name

OS:Schedule:Ruleset,
  {88e186af-b6ba-4409-9454-716c7f773b30}, ! Handle
  LargeHotel Bldg Light,                  ! Name
  {071e0e34-2f78-4fbf-8af9-ffe2d4a3f384}, ! Schedule Type Limits Name
  {2c36ed48-7ff7-4755-91f5-8197da868f38}, ! Default Day Schedule Name
  {33a0d33b-df16-496a-a0c9-adad880b2efe}, ! Summer Design Day Schedule Name
  {22878e1c-38dd-4f2d-9bd4-7bc09f27a5ac}; ! Winter Design Day Schedule Name

OS:ScheduleTypeLimits,
  {071e0e34-2f78-4fbf-8af9-ffe2d4a3f384}, ! Handle
  Fraction,                               ! Name
  0,                                      ! Lower Limit Value
  1,                                      ! Upper Limit Value
  CONTINUOUS;                             ! Numeric Type

OS:Schedule:Day,
  {2c36ed48-7ff7-4755-91f5-8197da868f38}, ! Handle
  LargeHotel Bldg Light Default Schedule, ! Name
  {071e0e34-2f78-4fbf-8af9-ffe2d4a3f384}, ! Schedule Type Limits Name
  ,                                       ! Interpolate to Timestep
  1,                                      !- Hour 1
  0,                                      !- Minute 1
  0.2,                                    !- Value Until Time 1
  2,                                      !- Hour 2
  0,                                      !- Minute 2
  0.15,                                   !- Value Until Time 2
  5,                                      !- Hour 3
  0,                                      !- Minute 3
  0.1,                                    !- Value Until Time 3
  6,                                      !- Hour 4
  0,                                      !- Minute 4
  0.2,                                    !- Value Until Time 4
  7,                                      !- Hour 5
  0,                                      !- Minute 5
  0.4,                                    !- Value Until Time 5
  8,                                      !- Hour 6
  0,                                      !- Minute 6
  0.5,                                    !- Value Until Time 6
  10,                                     !- Hour 7
  0,                                      !- Minute 7
  0.4,                                    !- Value Until Time 7
  18,                                     !- Hour 8
  0,                                      !- Minute 8
  0.25,                                   !- Value Until Time 8
  19,                                     !- Hour 9
  0,                                      !- Minute 9
  0.6,                                    !- Value Until Time 9
  20,                                     !- Hour 10
  0,                                      !- Minute 10
  0.8,                                    !- Value Until Time 10
  21,                                     !- Hour 11
  0,                                      !- Minute 11
  0.9,                                    !- Value Until Time 11
  22,                                     !- Hour 12
  0,                                      !- Minute 12
  0.8,                                    !- Value Until Time 12
  23,                                     !- Hour 13
  0,                                      !- Minute 13
  0.6,                                    !- Value Until Time 13
  24,                                     !- Hour 14
  0,                                      !- Minute 14
  0.3;                                    !- Value Until Time 14

OS:Schedule:Day,
  {33a0d33b-df16-496a-a0c9-adad880b2efe}, ! Handle
  LargeHotel Bldg Light Summer Design Day, ! Name
  {071e0e34-2f78-4fbf-8af9-ffe2d4a3f384}, ! Schedule Type Limits Name
  ,                                       ! Interpolate to Timestep
  24,                                     ! Hour 1
  0,                                      ! Minute 1
  1;                                      ! Value Until Time 1

OS:Schedule:Day,
  {22878e1c-38dd-4f2d-9bd4-7bc09f27a5ac}, ! Handle
  LargeHotel Bldg Light Winter Design Day, ! Name
  {071e0e34-2f78-4fbf-8af9-ffe2d4a3f384}, ! Schedule Type Limits Name
  ,                                       ! Interpolate to Timestep
  24,                                     ! Hour 1
  0,                                      ! Minute 1
  0;                                      ! Value Until Time 1

OS:Schedule:Rule,
  {43840595-c128-4c25-a99c-27c4047a517d}, ! Handle
  LargeHotel Bldg Light Rule 1,           ! Name
  {88e186af-b6ba-4409-9454-716c7f773b30}, ! Schedule Ruleset Name
  0,                                      ! Rule Order
  {ee6535e3-461c-427c-adf3-8ef36ff3eb23}, ! Day Schedule Name
  Yes,                                    ! Apply Sunday
  No,                                     ! Apply Monday
  No,                                     ! Apply Tuesday
  No,                                     ! Apply Wednesday
  No,                                     ! Apply Thursday
  No,                                     ! Apply Friday
  No,                                     ! Apply Saturday
  ,                                       ! Apply Holiday
  DateRange,                              ! Date Specification Type
  1,                                      ! Start Month
  1,                                      ! Start Day
  12,                                     ! End Month
  31;                                     ! End Day

OS:Schedule:Day,
  {ee6535e3-461c-427c-adf3-8ef36ff3eb23}, ! Handle
  LargeHotel Bldg Light Rule 1 Day Schedule, ! Name
  {071e0e34-2f78-4fbf-8af9-ffe2d4a3f384}, ! Schedule Type Limits Name
  ,                                       ! Interpolate to Timestep
  2,                                      ! Hour 1
  0,                                      ! Minute 1
  0.29999999999999999,                    ! Value Until Time 1
  6,                                      ! Hour 2
  0,                                      ! Minute 2
  0.20000000000000001,                    ! Value Until Time 2
  7,                                      ! Hour 3
  0,                                      ! Minute 3
  0.29999999999999999,                    ! Value Until Time 3
  9,                                      ! Hour 4
  0,                                      ! Minute 4
  0.40000000000000002,                    ! Value Until Time 4
  13,                                     ! Hour 5
  0,                                      ! Minute 5
  0.29999999999999999,                    ! Value Until Time 5
  18,                                     ! Hour 6
  0,                                      ! Minute 6
  0.20000000000000001,                    ! Value Until Time 6
  19,                                     ! Hour 7
  0,                                      ! Minute 7
  0.5,                                    ! Value Until Time 7
  20,                                     ! Hour 8
  0,                                      ! Minute 8
  0.69999999999999996,                    ! Value Until Time 8
  21,                                     ! Hour 9
  0,                                      ! Minute 9
  0.80000000000000004,                    ! Value Until Time 9
  22,                                     ! Hour 10
  0,                                      ! Minute 10
  0.59999999999999998,                    ! Value Until Time 10
  23,                                     ! Hour 11
  0,                                      ! Minute 11
  0.5,                                    ! Value Until Time 11
  24,                                     ! Hour 12
  0,                                      ! Minute 12
  0.29999999999999999;                    ! Value Until Time 12

OS:Schedule:Rule,
  {749b24c0-171a-4da1-bc65-b03cb1ad26b2}, ! Handle
  LargeHotel Bldg Light Rule 2,           ! Name
  {88e186af-b6ba-4409-9454-716c7f773b30}, ! Schedule Ruleset Name
  1,                                      ! Rule Order
  {d28b6cc2-fd25-45e0-91cf-0c1e5b5c6c41}, ! Day Schedule Name
  No,                                     ! Apply Sunday
  No,                                     ! Apply Monday
  No,                                     ! Apply Tuesday
  No,                                     ! Apply Wednesday
  No,                                     ! Apply Thursday
  No,                                     ! Apply Friday
  Yes,                                    ! Apply Saturday
  ,                                       ! Apply Holiday
  DateRange,                              ! Date Specification Type
  1,                                      ! Start Month
  1,                                      ! Start Day
  12,                                     ! End Month
  31;                                     ! End Day

OS:Schedule:Day,
  {d28b6cc2-fd25-45e0-91cf-0c1e5b5c6c41}, ! Handle
  LargeHotel Bldg Light Rule 2 Day Schedule, ! Name
  {071e0e34-2f78-4fbf-8af9-ffe2d4a3f384}, ! Schedule Type Limits Name
  ,                                       ! Interpolate to Timestep
  2,                                      ! Hour 1
  0,                                      ! Minute 1
  0.20000000000000001,                    ! Value Until Time 1
  6,                                      ! Hour 2
  0,                                      ! Minute 2
  0.10000000000000001,                    ! Value Until Time 2
  8,                                      ! Hour 3
  0,                                      ! Minute 3
  0.29999999999999999,                    ! Value Until Time 3
  10,                                     ! Hour 4
  0,                                      ! Minute 4
  0.40000000000000002,                    ! Value Until Time 4
  11,                                     ! Hour 5
  0,                                      ! Minute 5
  0.29999999999999999,                    ! Value Until Time 5
  18,                                     ! Hour 6
  0,                                      ! Minute 6
  0.25,                                   ! Value Until Time 6
  19,                                     ! Hour 7
  0,                                      ! Minute 7
  0.59999999999999998,                    ! Value Until Time 7
  22,                                     ! Hour 8
  0,                                      ! Minute 8
  0.69999999999999996,                    ! Value Until Time 8
  23,                                     ! Hour 9
  0,                                      ! Minute 9
  0.59999999999999998,                    ! Value Until Time 9
  24,                                     ! Hour 10
  0,                                      ! Minute 10
  0.29999999999999999;                    ! Value Until Time 10

OS:DesignSpecification:OutdoorAir,
  {8b32836c-715a-449d-b421-4de3cf560b5c}, !- Handle
  DOE Ref 2004 - LrgHotel - Banquet Ventilation, !- Name
  Sum,                                    !- Outdoor Air Method
  0.009438948864,                         !- Outdoor Air Flow per Person {m3/s-person}
  ,                                       !- Outdoor Air Flow per Floor Area {m3/s-m2}
  ,                                       !- Outdoor Air Flow Rate {m3/s}
  ,                                       !- Outdoor Air Flow Air Changes per Hour {1/hr}
  ;                                       !- Outdoor Air Flow Rate Fraction Schedule Name

OS:People:Definition,
  {2334d009-8734-4baf-9e2e-1137072914e0}, !- Handle
  DOE Ref 2004 - LrgHotel - Banquet People Definition, !- Name
  People/Area,                            !- Number of People Calculation Method
  ,                                       !- Number of People {people}
  0.721181997919551,                      !- People per Space Floor Area {person/m2}
  ,                                       !- Space Floor Area per Person {m2/person}
  0.3;                                    !- Fraction Radiant

OS:People,
  {64be3d91-4dab-4370-b330-e15151edf052}, !- Handle
  DOE Ref 2004 - LrgHotel - Banquet People, !- Name
  {2334d009-8734-4baf-9e2e-1137072914e0}, !- People Definition Name
  {6222916a-99d0-4069-bc46-017ad76f7ce1}; !- Space or SpaceType Name

OS:Schedule:Ruleset,
  {320738cd-e335-414d-b289-4e0f0e609ae4}, ! Handle
  LargeHotel Bldg Occ,                    ! Name
  {071e0e34-2f78-4fbf-8af9-ffe2d4a3f384}, ! Schedule Type Limits Name
  {9195f5c0-b2b8-4a2c-b0ca-6a4a86f9289e}, ! Default Day Schedule Name
  {b3959319-90fa-43c9-80b1-c2cf0099a8af}, ! Summer Design Day Schedule Name
  {640afc35-c400-4662-b56f-94751b3c07eb}; ! Winter Design Day Schedule Name

OS:Schedule:Day,
  {9195f5c0-b2b8-4a2c-b0ca-6a4a86f9289e}, ! Handle
  LargeHotel Bldg Occ Default Schedule,   ! Name
  {071e0e34-2f78-4fbf-8af9-ffe2d4a3f384}, ! Schedule Type Limits Name
  ,                                       ! Interpolate to Timestep
  6,                                      !- Hour 1
  0,                                      !- Minute 1
  0.9,                                    !- Value Until Time 1
  7,                                      !- Hour 2
  0,                                      !- Minute 2
  0.7,                                    !- Value Until Time 2
  9,                                      !- Hour 3
  0,                                      !- Minute 3
  0.4,                                    !- Value Until Time 3
  15,                                     !- Hour 4
  0,                                      !- Minute 4
  0.2,                                    !- Value Until Time 4
  16,                                     !- Hour 5
  0,                                      !- Minute 5
  0.3,                                    !- Value Until Time 5
  19,                                     !- Hour 6
  0,                                      !- Minute 6
  0.5,                                    !- Value Until Time 6
  21,                                     !- Hour 7
  0,                                      !- Minute 7
  0.7,                                    !- Value Until Time 7
  22,                                     !- Hour 8
  0,                                      !- Minute 8
  0.8,                                    !- Value Until Time 8
  24,                                     !- Hour 9
  0,                                      !- Minute 9
  0.9;                                    !- Value Until Time 9

OS:Schedule:Day,
  {b3959319-90fa-43c9-80b1-c2cf0099a8af}, ! Handle
  LargeHotel Bldg Occ Summer Design Day,  ! Name
  {071e0e34-2f78-4fbf-8af9-ffe2d4a3f384}, ! Schedule Type Limits Name
  ,                                       ! Interpolate to Timestep
  24,                                     ! Hour 1
  0,                                      ! Minute 1
  1;                                      ! Value Until Time 1

OS:Schedule:Day,
  {640afc35-c400-4662-b56f-94751b3c07eb}, ! Handle
  LargeHotel Bldg Occ Winter Design Day,  ! Name
  {071e0e34-2f78-4fbf-8af9-ffe2d4a3f384}, ! Schedule Type Limits Name
  ,                                       ! Interpolate to Timestep
  24,                                     ! Hour 1
  0,                                      ! Minute 1
  0;                                      ! Value Until Time 1

OS:Schedule:Rule,
  {80bcfbef-f8c2-4847-8e3b-68eaf8c4e95b}, ! Handle
  LargeHotel Bldg Occ Rule 1,             ! Name
  {320738cd-e335-414d-b289-4e0f0e609ae4}, ! Schedule Ruleset Name
  0,                                      ! Rule Order
  {52ffaf9f-eab8-4578-b10e-3b40fa94d102}, ! Day Schedule Name
  Yes,                                    ! Apply Sunday
  No,                                     ! Apply Monday
  No,                                     ! Apply Tuesday
  No,                                     ! Apply Wednesday
  No,                                     ! Apply Thursday
  No,                                     ! Apply Friday
  No,                                     ! Apply Saturday
  ,                                       ! Apply Holiday
  DateRange,                              ! Date Specification Type
  1,                                      ! Start Month
  1,                                      ! Start Day
  12,                                     ! End Month
  31;                                     ! End Day

OS:Schedule:Day,
  {52ffaf9f-eab8-4578-b10e-3b40fa94d102}, ! Handle
  LargeHotel Bldg Occ Rule 1 Day Schedule, ! Name
  {071e0e34-2f78-4fbf-8af9-ffe2d4a3f384}, ! Schedule Type Limits Name
  ,                                       ! Interpolate to Timestep
  8,                                      ! Hour 1
  0,                                      ! Minute 1
  0.69999999999999996,                    ! Value Until Time 1
  11,                                     ! Hour 2
  0,                                      ! Minute 2
  0.5,                                    ! Value Until Time 2
  13,                                     ! Hour 3
  0,                                      ! Minute 3
  0.29999999999999999,                    ! Value Until Time 3
  16,                                     ! Hour 4
  0,                                      ! Minute 4
  0.20000000000000001,                    ! Value Until Time 4
  17,                                     ! Hour 5
  0,                                      ! Minute 5
  0.29999999999999999,                    ! Value Until Time 5
  19,                                     ! Hour 6
  0,                                      ! Minute 6
  0.40000000000000002,                    ! Value Until Time 6
  21,                                     ! Hour 7
  0,                                      ! Minute 7
  0.59999999999999998,                    ! Value Until Time 7
  24,                                     ! Hour 8
  0,                                      ! Minute 8
  0.80000000000000004;                    ! Value Until Time 8

OS:Schedule:Rule,
  {86d98e8d-12ec-465e-b1c6-d682df1b8720}, ! Handle
  LargeHotel Bldg Occ Rule 2,             ! Name
  {320738cd-e335-414d-b289-4e0f0e609ae4}, ! Schedule Ruleset Name
  1,                                      ! Rule Order
  {5109f5b8-0e44-4ee8-aa5a-11997a235a55}, ! Day Schedule Name
  No,                                     ! Apply Sunday
  No,                                     ! Apply Monday
  No,                                     ! Apply Tuesday
  No,                                     ! Apply Wednesday
  No,                                     ! Apply Thursday
  No,                                     ! Apply Friday
  Yes,                                    ! Apply Saturday
  ,                                       ! Apply Holiday
  DateRange,                              ! Date Specification Type
  1,                                      ! Start Month
  1,                                      ! Start Day
  12,                                     ! End Month
  31;                                     ! End Day

OS:Schedule:Day,
  {5109f5b8-0e44-4ee8-aa5a-11997a235a55}, ! Handle
  LargeHotel Bldg Occ Rule 2 Day Schedule, ! Name
  {071e0e34-2f78-4fbf-8af9-ffe2d4a3f384}, ! Schedule Type Limits Name
  ,                                       ! Interpolate to Timestep
  6,                                      ! Hour 1
  0,                                      ! Minute 1
  0.90000000000000002,                    ! Value Until Time 1
  7,                                      ! Hour 2
  0,                                      ! Minute 2
  0.69999999999999996,                    ! Value Until Time 2
  9,                                      ! Hour 3
  0,                                      ! Minute 3
  0.5,                                    ! Value Until Time 3
  17,                                     ! Hour 4
  0,                                      ! Minute 4
  0.29999999999999999,                    ! Value Until Time 4
  18,                                     ! Hour 5
  0,                                      ! Minute 5
  0.5,                                    ! Value Until Time 5
  21,                                     ! Hour 6
  0,                                      ! Minute 6
  0.59999999999999998,                    ! Value Until Time 6
  24,                                     ! Hour 7
  0,                                      ! Minute 7
  0.69999999999999996;                    ! Value Until Time 7

OS:Schedule:Ruleset,
  {a3398078-f120-4ae2-af5d-2fe6961a71ec}, ! Handle
  LargeHotel Activity,                    ! Name
  {4f215683-c234-4d18-aa26-54c06636228b}, ! Schedule Type Limits Name
  {b7036ab8-c273-4ad2-9d15-40fe8b3328cd}, ! Default Day Schedule Name
  {daca6355-01e4-4574-959e-bd7905cb44b5}, ! Summer Design Day Schedule Name
  {b72bd362-5c43-413c-9be3-02e9e369b2c5}; ! Winter Design Day Schedule Name

OS:ScheduleTypeLimits,
  {4f215683-c234-4d18-aa26-54c06636228b}, !- Handle
  ActivityLevel 3,                        !- Name
  0,                                      !- Lower Limit Value {BasedOnField A4}
  ,                                       !- Upper Limit Value {BasedOnField A4}
  Continuous,                             !- Numeric Type
  ActivityLevel;                          !- Unit Type

OS:Schedule:Day,
  {b7036ab8-c273-4ad2-9d15-40fe8b3328cd}, ! Handle
  LargeHotel Activity Default Schedule,   ! Name
  {4f215683-c234-4d18-aa26-54c06636228b}, ! Schedule Type Limits Name
  ,                                       ! Interpolate to Timestep
  24,                                     !- Hour 1
  0,                                      !- Minute 1
  120;                                    !- Value Until Time 1

OS:Schedule:Day,
  {daca6355-01e4-4574-959e-bd7905cb44b5}, ! Handle
  LargeHotel Activity Summer Design Day,  ! Name
  {4f215683-c234-4d18-aa26-54c06636228b}, ! Schedule Type Limits Name
  ,                                       ! Interpolate to Timestep
  24,                                     ! Hour 1
  0,                                      ! Minute 1
  120;                                    ! Value Until Time 1

OS:Schedule:Day,
  {b72bd362-5c43-413c-9be3-02e9e369b2c5}, ! Handle
  LargeHotel Activity Winter Design Day,  ! Name
  {4f215683-c234-4d18-aa26-54c06636228b}, ! Schedule Type Limits Name
  ,                                       ! Interpolate to Timestep
  24,                                     ! Hour 1
  0,                                      ! Minute 1
  120;                                    ! Value Until Time 1

OS:SpaceInfiltration:DesignFlowRate,
  {8eea09f5-1eea-4e73-9a6f-36ae2008ea77}, !- Handle
  DOE Ref 2004 - LrgHotel - Banquet Infiltration, !- Name
  {6222916a-99d0-4069-bc46-017ad76f7ce1}, !- Space or SpaceType Name
  ,                                       !- Schedule Name
  Flow/ExteriorArea,                      !- Design Flow Rate Calculation Method
  ,                                       !- Design Flow Rate {m3/s}
  ,                                       !- Flow per Space Floor Area {m3/s-m2}
  0.00030226,                             !- Flow per Exterior Surface Area {m3/s-m2}
  ,                                       !- Air Changes per Hour {1/hr}
  ,                                       !- Constant Term Coefficient
  ,                                       !- Temperature Term Coefficient
  ,                                       !- Velocity Term Coefficient
  ;                                       !- Velocity Squared Term Coefficient

OS:Schedule:Ruleset,
  {629f4d0e-1ff7-4620-9827-722130c0e392}, ! Handle
  LargeHotel Infil Quarter On,            ! Name
  {071e0e34-2f78-4fbf-8af9-ffe2d4a3f384}, ! Schedule Type Limits Name
  {c0ceb590-9cf1-4828-9c50-0e7ae0d27184}, ! Default Day Schedule Name
  {db7e14e7-9069-4fa2-8d4d-f574abded9f6}, ! Summer Design Day Schedule Name
  {58e68aa4-1049-4b58-a8ea-8c7a9dd51c6a}; ! Winter Design Day Schedule Name

OS:Schedule:Day,
  {c0ceb590-9cf1-4828-9c50-0e7ae0d27184}, ! Handle
  LargeHotel Infil Quarter On Default Schedule, ! Name
  {071e0e34-2f78-4fbf-8af9-ffe2d4a3f384}, ! Schedule Type Limits Name
  ,                                       ! Interpolate to Timestep
  24,                                     !- Hour 1
  0,                                      !- Minute 1
  0.25;                                   !- Value Until Time 1

OS:Schedule:Day,
  {db7e14e7-9069-4fa2-8d4d-f574abded9f6}, ! Handle
  LargeHotel Infil Quarter On Summer Design Day, ! Name
  {071e0e34-2f78-4fbf-8af9-ffe2d4a3f384}, ! Schedule Type Limits Name
  ,                                       ! Interpolate to Timestep
  24,                                     ! Hour 1
  0,                                      ! Minute 1
  0.25;                                   ! Value Until Time 1

OS:Schedule:Day,
  {58e68aa4-1049-4b58-a8ea-8c7a9dd51c6a}, ! Handle
  LargeHotel Infil Quarter On Winter Design Day, ! Name
  {071e0e34-2f78-4fbf-8af9-ffe2d4a3f384}, ! Schedule Type Limits Name
  ,                                       ! Interpolate to Timestep
  24,                                     ! Hour 1
  0,                                      ! Minute 1
  0.25;                                   ! Value Until Time 1

OS:ElectricEquipment:Definition,
  {0e844ced-2590-4b97-9e35-d2504524d75d}, !- Handle