
OS:Version,
  {c83e842d-9dd5-4ede-8583-3dd7844281cc}, !- Handle
  1.6.0;                                  !- Version Identifier

OS:ClimateZones,
  {00dda828-8d9d-4465-bd4d-0c0c556ea992}, !- Handle
  ,                                       !- Active Institution
  ,                                       !- Active Year
  ASHRAE,                                 !- Climate Zone Institution Name 1
  ANSI/ASHRAE Standard 169,               !- Climate Zone Document Name 1
  2006,                                   !- Climate Zone Document Year 1
  ,                                       !- Climate Zone Value 1
  CEC,                                    !- Climate Zone Institution Name 2
  California Climate Zone Descriptions,   !- Climate Zone Document Name 2
  1995,                                   !- Climate Zone Document Year 2
  ;                                       !- Climate Zone Value 2

OS:LifeCycleCost:Parameters,
  {6a4fbf89-81ad-4d65-b366-afd317fb7f33}, !- Handle
  FEMP,                                   !- Analysis Type
  ,                                       !- Discounting Convention
  ,                                       !- Inflation Approach
  ,                                       !- Real Discount Rate
  ,                                       !- Nominal Discount Rate
  ,                                       !- Inflation
  ,                                       !- Base Date Month
  ,                                       !- Base Date Year
  ,                                       !- Service Date Month
  ,                                       !- Service Date Year
  ,                                       !- Length of Study Period in Years
  ,                                       !- Tax Rate
  ,                                       !- Depreciation Method
  Yes;                                    !- Use NIST Fuel Escalation Rates

OS:YearDescription,
  {6db9d436-efda-4d1c-99cd-5e575aafcf98}; !- Handle

OS:Building,
  {aed50290-79f3-49ec-b232-91325ed1b660}, !- Handle
  Building 1,                             !- Name
  ,                                       !- Building Sector Type
  ,                                       !- North Axis {deg}
  ,                                       !- Nominal Floor to Floor Height {m}
  {30649c4e-224c-4740-9b91-f843b83d4b93}, !- Space Type Name
  {2e1f4655-92e0-4d84-a254-7476740d9628}, !- Default Construction Set Name
  ;                                       !- Default Schedule Set Name

OS:Facility,
  {57faeb43-443e-4961-8221-fe11336fdc41}; !- Handle

OS:SpaceType,
  {4207c152-026f-4f92-91e4-895fa34fbb77}, !- Handle
  DOE Ref 2004 - LrgHotel - Banquet,      !- Name
  ,                                       !- Default Construction Set Name
  {30fb5dff-1f98-44bf-b749-50f9155a1140}, !- Default Schedule Set Name
  {6a412f38-307f-4b77-87bd-5a55d4bad4f5}, !- Group Rendering Name
  {17c5cf95-6da2-4b3c-b790-48d839380d3e}, !- Design Specification Outdoor Air Object Name
  LargeHotel,                             !- Standards Building Type
  Banquet;                                !- Standards Space Type

OS:Rendering:Color,
  {6a412f38-307f-4b77-87bd-5a55d4bad4f5}, !- Handle
  Rendering Color 1,                      !- Name
  230,                                    !- Rendering Red Value
  196,                                    !- Rendering Green Value
  120;                                    !- Rendering Blue Value

OS:DefaultScheduleSet,
  {30fb5dff-1f98-44bf-b749-50f9155a1140}, !- Handle
  DOE Ref 2004 - LrgHotel - Banquet Schedule Set, !- Name
  ,                                       !- Hours of Operation Schedule Name
  {48987927-3f13-4928-aab8-0c8b4e67027c}, !- Number of People Schedule Name
  {3bf0b4ad-0d59-4a3c-a511-e2856f935472}, !- People Activity Level Schedule Name
  {382dd916-af7a-4dc7-912d-29e83fb61a6c}, !- Lighting Schedule Name
  {be760f07-52bf-47e1-bbb2-23b4066c31f4}, !- Electric Equipment Schedule Name
  ,                                       !- Gas Equipment Schedule Name
  ,                                       !- Hot Water Equipment Schedule Name
  {e8a018c4-07a0-45fa-8862-b93b02d5dcac}, !- Infiltration Schedule Name
  ,                                       !- Steam Equipment Schedule Name
  ;                                       !- Other Equipment Schedule Name

OS:Lights:Definition,
  {79890ea4-2ad0-490d-b0fb-c92f3410b861}, !- Handle
  DOE Ref 2004 - LrgHotel - Banquet Lights Definition, !- Name
  Watts/Area,                             !- Design Level Calculation Method
  ,                                       !- Lighting Level {W}
  13.9930835417226,                       !- Watts per Space Floor Area {W/m2}
  ;                                       !- Watts per Person {W/person}

OS:Lights,
  {d4c78c62-f572-4a58-bd2a-344bb2ad420d}, !- Handle
  DOE Ref 2004 - LrgHotel - Banquet Lights, !- Name
  {79890ea4-2ad0-490d-b0fb-c92f3410b861}, !- Lights Definition Name
  {4207c152-026f-4f92-91e4-895fa34fbb77}; !- Space or SpaceType Name

OS:Schedule:Ruleset,
  {382dd916-af7a-4dc7-912d-29e83fb61a6c}, ! Handle
  LargeHotel Bldg Light,                  ! Name
  {985df695-6fb1-413d-9289-ae851ca812ba}, ! Schedule Type Limits Name
  {e718b215-0e82-40cf-80be-e0c30b8b5cf0}, ! Default Day Schedule Name
  {8bfb52d7-275b-4c59-a4a3-d6cbba64a5d1}, ! Summer Design Day Schedule Name
  {7981a0de-dcec-4878-aceb-d197d17d08a7}; ! Winter Design Day Schedule Name

OS:ScheduleTypeLimits,
  {985df695-6fb1-413d-9289-ae851ca812ba}, ! Handle
  Fraction,                               ! Name
  0,                                      ! Lower Limit Value
  1,                                      ! Upper Limit Value
  CONTINUOUS;                             ! Numeric Type

OS:Schedule:Day,
  {e718b215-0e82-40cf-80be-e0c30b8b5cf0}, ! Handle
  LargeHotel Bldg Light Default Schedule, ! Name
  {985df695-6fb1-413d-9289-ae851ca812ba}, ! Schedule Type Limits Name
  ,                                       ! Interpolate to Timestep
  1,                                      !- Hour 1
  0,                                      !- Minute 1
  0.2,                                    !- Value Until Time 1
  2,                                      !- Hour 2
  0,                                      !- Minute 2
  0.15,                                   !- Value Until Time 2
  5,                                      !- Hour 3
  0,                                      !- Minute 3
  0.1,                                    !- Value Until Time 3
  6,                                      !- Hour 4
  0,                                      !- Minute 4
  0.2,                                    !- Value Until Time 4
  7,                                      !- Hour 5
  0,                                      !- Minute 5
  0.4,                                    !- Value Until Time 5
  8,                                      !- Hour 6
  0,                                      !- Minute 6
  0.5,                                    !- Value Until Time 6
  10,                                     !- Hour 7
  0,                                      !- Minute 7
  0.4,                                    !- Value Until Time 7
  18,                                     !- Hour 8
  0,                                      !- Minute 8
  0.25,                                   !- Value Until Time 8
  19,                                     !- Hour 9
  0,                                      !- Minute 9
  0.6,                                    !- Value Until Time 9
  20,                                     !- Hour 10
  0,                                      !- Minute 10
  0.8,                                    !- Value Until Time 10
  21,                                     !- Hour 11
  0,                                      !- Minute 11
  0.9,                                    !- Value Until Time 11
  22,                                     !- Hour 12
  0,                                      !- Minute 12
  0.8,                                    !- Value Until Time 12
  23,                                     !- Hour 13
  0,                                      !- Minute 13
  0.6,                                    !- Value Until Time 13
  24,                                     !- Hour 14
  0,                                      !- Minute 14
  0.3;                                    !- Value Until Time 14

OS:Schedule:Day,
  {8bfb52d7-275b-4c59-a4a3-d6cbba64a5d1}, ! Handle
  LargeHotel Bldg Light Summer Design Day, ! Name
  {985df695-6fb1-413d-9289-ae851ca812ba}, ! Schedule Type Limits Name
  ,                                       ! Interpolate to Timestep
  24,                                     ! Hour 1
  0,                                      ! Minute 1
  1;                                      ! Value Until Time 1

OS:Schedule:Day,
  {7981a0de-dcec-4878-aceb-d197d17d08a7}, ! Handle
  LargeHotel Bldg Light Winter Design Day, ! Name
  {985df695-6fb1-413d-9289-ae851ca812ba}, ! Schedule Type Limits Name
  ,                                       ! Interpolate to Timestep
  24,                                     ! Hour 1
  0,                                      ! Minute 1
  0;                                      ! Value Until Time 1

OS:Schedule:Rule,
  {25f99dc1-b4d9-4519-83e7-a8014e495ef9}, ! Handle
  LargeHotel Bldg Light Rule 1,           ! Name
  {382dd916-af7a-4dc7-912d-29e83fb61a6c}, ! Schedule Ruleset Name
  0,                                      ! Rule Order
  {a033d829-0f76-419f-96d8-0f7a1a6e6e0e}, ! Day Schedule Name
  Yes,                                    ! Apply Sunday
  No,                                     ! Apply Monday
  No,                                     ! Apply Tuesday
  No,                                     ! Apply Wednesday
  No,                                     ! Apply Thursday
  No,                                     ! Apply Friday
  No,                                     ! Apply Saturday
  ,                                       ! Apply Holiday
  DateRange,                              ! Date Specification Type
  1,                                      ! Start Month
  1,                                      ! Start Day
  12,                                     ! End Month
  31;                                     ! End Day

OS:Schedule:Day,
  {a033d829-0f76-419f-96d8-0f7a1a6e6e0e}, ! Handle
  LargeHotel Bldg Light Rule 1 Day Schedule, ! Name
  {985df695-6fb1-413d-9289-ae851ca812ba}, ! Schedule Type Limits Name
  ,                                       ! Interpolate to Timestep
  2,                                      ! Hour 1
  0,                                      ! Minute 1
  0.29999999999999999,                    ! Value Until Time 1
  6,                                      ! Hour 2
  0,                                      ! Minute 2
  0.20000000000000001,                    ! Value Until Time 2
  7,                                      ! Hour 3
  0,                                      ! Minute 3
  0.29999999999999999,                    ! Value Until Time 3
  9,                                      ! Hour 4
  0,                                      ! Minute 4
  0.40000000000000002,                    ! Value Until Time 4
  13,                                     ! Hour 5
  0,                                      ! Minute 5
  0.29999999999999999,                    ! Value Until Time 5
  18,                                     ! Hour 6
  0,                                      ! Minute 6
  0.20000000000000001,                    ! Value Until Time 6
  19,                                     ! Hour 7
  0,                                      ! Minute 7
  0.5,                                    ! Value Until Time 7
  20,                                     ! Hour 8
  0,                                      ! Minute 8
  0.69999999999999996,                    ! Value Until Time 8
  21,                                     ! Hour 9
  0,                                      ! Minute 9
  0.80000000000000004,                    ! Value Until Time 9
  22,                                     ! Hour 10
  0,                                      ! Minute 10
  0.59999999999999998,                    ! Value Until Time 10
  23,                                     ! Hour 11
  0,                                      ! Minute 11
  0.5,                                    ! Value Until Time 11
  24,                                     ! Hour 12
  0,                                      ! Minute 12
  0.29999999999999999;                    ! Value Until Time 12

OS:Schedule:Rule,
  {394d2fda-3f98-404b-85ed-50fec83236eb}, ! Handle
  LargeHotel Bldg Light Rule 2,           ! Name
  {382dd916-af7a-4dc7-912d-29e83fb61a6c}, ! Schedule Ruleset Name
  1,                                      ! Rule Order
  {47891d6b-7b7a-4e80-ac64-3f690e43c5c0}, ! Day Schedule Name
  No,                                     ! Apply Sunday
  No,                                     ! Apply Monday
  No,                                     ! Apply Tuesday
  No,                                     ! Apply Wednesday
  No,                                     ! Apply Thursday
  No,                                     ! Apply Friday
  Yes,                                    ! Apply Saturday
  ,                                       ! Apply Holiday
  DateRange,                              ! Date Specification Type
  1,                                      ! Start Month
  1,                                      ! Start Day
  12,                                     ! End Month
  31;                                     ! End Day

OS:Schedule:Day,
  {47891d6b-7b7a-4e80-ac64-3f690e43c5c0}, ! Handle
  LargeHotel Bldg Light Rule 2 Day Schedule, ! Name
  {985df695-6fb1-413d-9289-ae851ca812ba}, ! Schedule Type Limits Name
  ,                                       ! Interpolate to Timestep
  2,                                      ! Hour 1
  0,                                      ! Minute 1
  0.20000000000000001,                    ! Value Until Time 1
  6,                                      ! Hour 2
  0,                                      ! Minute 2
  0.10000000000000001,                    ! Value Until Time 2
  8,                                      ! Hour 3
  0,                                      ! Minute 3
  0.29999999999999999,                    ! Value Until Time 3
  10,                                     ! Hour 4
  0,                                      ! Minute 4
  0.40000000000000002,                    ! Value Until Time 4
  11,                                     ! Hour 5
  0,                                      ! Minute 5
  0.29999999999999999,                    ! Value Until Time 5
  18,                                     ! Hour 6
  0,                                      ! Minute 6
  0.25,                                   ! Value Until Time 6
  19,                                     ! Hour 7
  0,                                      ! Minute 7
  0.59999999999999998,                    ! Value Until Time 7
  22,                                     ! Hour 8
  0,                                      ! Minute 8
  0.69999999999999996,                    ! Value Until Time 8
  23,                                     ! Hour 9
  0,                                      ! Minute 9
  0.59999999999999998,                    ! Value Until Time 9
  24,                                     ! Hour 10
  0,                                      ! Minute 10
  0.29999999999999999;                    ! Value Until Time 10

OS:DesignSpecification:OutdoorAir,
  {17c5cf95-6da2-4b3c-b790-48d839380d3e}, !- Handle
  DOE Ref 2004 - LrgHotel - Banquet Ventilation, !- Name
  Sum,                                    !- Outdoor Air Method
  0.009438948864,                         !- Outdoor Air Flow per Person {m3/s-person}
  ,                                       !- Outdoor Air Flow per Floor Area {m3/s-m2}
  ,                                       !- Outdoor Air Flow Rate {m3/s}
  ,                                       !- Outdoor Air Flow Air Changes per Hour {1/hr}
  ;                                       !- Outdoor Air Flow Rate Fraction Schedule Name

OS:People:Definition,
  {cf230aba-e9a1-41da-aa34-2459bf072b0b}, !- Handle
  DOE Ref 2004 - LrgHotel - Banquet People Definition, !- Name
  People/Area,                            !- Number of People Calculation Method
  ,                                       !- Number of People {people}
  0.721181997919551,                      !- People per Space Floor Area {person/m2}
  ,                                       !- Space Floor Area per Person {m2/person}
  0.3;                                    !- Fraction Radiant

OS:People,
  {1906f4d6-5f45-4168-bc63-ab278c1cc378}, !- Handle
  DOE Ref 2004 - LrgHotel - Banquet People, !- Name
  {cf230aba-e9a1-41da-aa34-2459bf072b0b}, !- People Definition Name
  {4207c152-026f-4f92-91e4-895fa34fbb77}; !- Space or SpaceType Name

OS:Schedule:Ruleset,
  {48987927-3f13-4928-aab8-0c8b4e67027c}, ! Handle
  LargeHotel Bldg Occ,                    ! Name
  {985df695-6fb1-413d-9289-ae851ca812ba}, ! Schedule Type Limits Name
  {325543e9-9004-475d-b56d-48c9235edd0f}, ! Default Day Schedule Name
  {c486f43e-78b3-47cc-98aa-a842a13a8962}, ! Summer Design Day Schedule Name
  {74391698-fd9e-4069-83e7-2402939be9a3}; ! Winter Design Day Schedule Name

OS:Schedule:Day,
  {325543e9-9004-475d-b56d-48c9235edd0f}, ! Handle
  LargeHotel Bldg Occ Default Schedule,   ! Name
  {985df695-6fb1-413d-9289-ae851ca812ba}, ! Schedule Type Limits Name
  ,                                       ! Interpolate to Timestep
  6,                                      !- Hour 1
  0,                                      !- Minute 1
  0.9,                                    !- Value Until Time 1
  7,                                      !- Hour 2
  0,                                      !- Minute 2
  0.7,                                    !- Value Until Time 2
  9,                                      !- Hour 3
  0,                                      !- Minute 3
  0.4,                                    !- Value Until Time 3
  15,                                     !- Hour 4
  0,                                      !- Minute 4
  0.2,                                    !- Value Until Time 4
  16,                                     !- Hour 5
  0,                                      !- Minute 5
  0.3,                                    !- Value Until Time 5
  19,                                     !- Hour 6
  0,                                      !- Minute 6
  0.5,                                    !- Value Until Time 6
  21,                                     !- Hour 7
  0,                                      !- Minute 7
  0.7,                                    !- Value Until Time 7
  22,                                     !- Hour 8
  0,                                      !- Minute 8
  0.8,                                    !- Value Until Time 8
  24,                                     !- Hour 9
  0,                                      !- Minute 9
  0.9;                                    !- Value Until Time 9

OS:Schedule:Day,
  {c486f43e-78b3-47cc-98aa-a842a13a8962}, ! Handle
  LargeHotel Bldg Occ Summer Design Day,  ! Name
  {985df695-6fb1-413d-9289-ae851ca812ba}, ! Schedule Type Limits Name
  ,                                       ! Interpolate to Timestep
  24,                                     ! Hour 1
  0,                                      ! Minute 1
  1;                                      ! Value Until Time 1

OS:Schedule:Day,
  {74391698-fd9e-4069-83e7-2402939be9a3}, ! Handle
  LargeHotel Bldg Occ Winter Design Day,  ! Name
  {985df695-6fb1-413d-9289-ae851ca812ba}, ! Schedule Type Limits Name
  ,                                       ! Interpolate to Timestep
  24,                                     ! Hour 1
  0,                                      ! Minute 1
  0;                                      ! Value Until Time 1

OS:Schedule:Rule,
  {d385015e-9dbb-408b-b68e-1222a67b581c}, ! Handle
  LargeHotel Bldg Occ Rule 1,             ! Name
  {48987927-3f13-4928-aab8-0c8b4e67027c}, ! Schedule Ruleset Name
  0,                                      ! Rule Order
  {2620092e-6cc2-47df-bb70-769fa0f69d05}, ! Day Schedule Name
  Yes,                                    ! Apply Sunday
  No,                                     ! Apply Monday
  No,                                     ! Apply Tuesday
  No,                                     ! Apply Wednesday
  No,                                     ! Apply Thursday
  No,                                     ! Apply Friday
  No,                                     ! Apply Saturday
  ,                                       ! Apply Holiday
  DateRange,                              ! Date Specification Type
  1,                                      ! Start Month
  1,                                      ! Start Day
  12,                                     ! End Month
  31;                                     ! End Day

OS:Schedule:Day,
  {2620092e-6cc2-47df-bb70-769fa0f69d05}, ! Handle
  LargeHotel Bldg Occ Rule 1 Day Schedule, ! Name
  {985df695-6fb1-413d-9289-ae851ca812ba}, ! Schedule Type Limits Name
  ,                                       ! Interpolate to Timestep
  8,                                      ! Hour 1
  0,                                      ! Minute 1
  0.69999999999999996,                    ! Value Until Time 1
  11,                                     ! Hour 2
  0,                                      ! Minute 2
  0.5,                                    ! Value Until Time 2
  13,                                     ! Hour 3
  0,                                      ! Minute 3
  0.29999999999999999,                    ! Value Until Time 3
  16,                                     ! Hour 4
  0,                                      ! Minute 4
  0.20000000000000001,                    ! Value Until Time 4
  17,                                     ! Hour 5
  0,                                      ! Minute 5
  0.29999999999999999,                    ! Value Until Time 5
  19,                                     ! Hour 6
  0,                                      ! Minute 6
  0.40000000000000002,                    ! Value Until Time 6
  21,                                     ! Hour 7
  0,                                      ! Minute 7
  0.59999999999999998,                    ! Value Until Time 7
  24,                                     ! Hour 8
  0,                                      ! Minute 8
  0.80000000000000004;                    ! Value Until Time 8

OS:Schedule:Rule,
  {adcb6555-5194-4467-9745-af7f407b3e56}, ! Handle
  LargeHotel Bldg Occ Rule 2,             ! Name
  {48987927-3f13-4928-aab8-0c8b4e67027c}, ! Schedule Ruleset Name
  1,                                      ! Rule Order
  {45c587e5-27e2-4fbe-b90f-e18b4cd8b2cf}, ! Day Schedule Name
  No,                                     ! Apply Sunday
  No,                                     ! Apply Monday
  No,                                     ! Apply Tuesday
  No,                                     ! Apply Wednesday
  No,                                     ! Apply Thursday
  No,                                     ! Apply Friday
  Yes,                                    ! Apply Saturday
  ,                                       ! Apply Holiday
  DateRange,                              ! Date Specification Type
  1,                                      ! Start Month
  1,                                      ! Start Day
  12,                                     ! End Month
  31;                                     ! End Day

OS:Schedule:Day,
  {45c587e5-27e2-4fbe-b90f-e18b4cd8b2cf}, ! Handle
  LargeHotel Bldg Occ Rule 2 Day Schedule, ! Name
  {985df695-6fb1-413d-9289-ae851ca812ba}, ! Schedule Type Limits Name
  ,                                       ! Interpolate to Timestep
  6,                                      ! Hour 1
  0,                                      ! Minute 1
  0.90000000000000002,                    ! Value Until Time 1
  7,                                      ! Hour 2
  0,                                      ! Minute 2
  0.69999999999999996,                    ! Value Until Time 2
  9,                                      ! Hour 3
  0,                                      ! Minute 3
  0.5,                                    ! Value Until Time 3
  17,                                     ! Hour 4
  0,                                      ! Minute 4
  0.29999999999999999,                    ! Value Until Time 4
  18,                                     ! Hour 5
  0,                                      ! Minute 5
  0.5,                                    ! Value Until Time 5
  21,                                     ! Hour 6
  0,                                      ! Minute 6
  0.59999999999999998,                    ! Value Until Time 6
  24,                                     ! Hour 7
  0,                                      ! Minute 7
  0.69999999999999996;                    ! Value Until Time 7

OS:Schedule:Ruleset,
  {3bf0b4ad-0d59-4a3c-a511-e2856f935472}, ! Handle
  LargeHotel Activity,                    ! Name
  {f39f5870-7b13-43fd-8588-9a1578ef3fc8}, ! Schedule Type Limits Name
  {98ddea2e-cc52-46a1-82e5-3d3ac0f2357d}, ! Default Day Schedule Name
  {91439bdd-48b7-4a6d-ac5d-5fd5824e73cb}, ! Summer Design Day Schedule Name
  {5c52ef56-830a-43ac-9c45-8527ddbf505b}; ! Winter Design Day Schedule Name

OS:ScheduleTypeLimits,
  {f39f5870-7b13-43fd-8588-9a1578ef3fc8}, !- Handle
  ActivityLevel 3,                        !- Name
  0,                                      !- Lower Limit Value {BasedOnField A4}
  ,                                       !- Upper Limit Value {BasedOnField A4}
  Continuous,                             !- Numeric Type
  ActivityLevel;                          !- Unit Type

OS:Schedule:Day,
  {98ddea2e-cc52-46a1-82e5-3d3ac0f2357d}, ! Handle
  LargeHotel Activity Default Schedule,   ! Name
  {f39f5870-7b13-43fd-8588-9a1578ef3fc8}, ! Schedule Type Limits Name
  ,                                       ! Interpolate to Timestep
  24,                                     !- Hour 1
  0,                                      !- Minute 1
  120;                                    !- Value Until Time 1

OS:Schedule:Day,
  {91439bdd-48b7-4a6d-ac5d-5fd5824e73cb}, ! Handle
  LargeHotel Activity Summer Design Day,  ! Name
  {f39f5870-7b13-43fd-8588-9a1578ef3fc8}, ! Schedule Type Limits Name
  ,                                       ! Interpolate to Timestep
  24,                                     ! Hour 1
  0,                                      ! Minute 1
  120;                                    ! Value Until Time 1

OS:Schedule:Day,
  {5c52ef56-830a-43ac-9c45-8527ddbf505b}, ! Handle
  LargeHotel Activity Winter Design Day,  ! Name
  {f39f5870-7b13-43fd-8588-9a1578ef3fc8}, ! Schedule Type Limits Name
  ,                                       ! Interpolate to Timestep
  24,                                     ! Hour 1
  0,                                      ! Minute 1
  120;                                    ! Value Until Time 1

OS:SpaceInfiltration:DesignFlowRate,
  {99ca8435-f375-48bf-91f7-fb18b59ae1d6}, !- Handle
  DOE Ref 2004 - LrgHotel - Banquet Infiltration, !- Name
  {4207c152-026f-4f92-91e4-895fa34fbb77}, !- Space or SpaceType Name
  ,                                       !- Schedule Name
  Flow/ExteriorArea,                      !- Design Flow Rate Calculation Method
  ,                                       !- Design Flow Rate {m3/s}
  ,                                       !- Flow per Space Floor Area {m3/s-m2}
  0.00030226,                             !- Flow per Exterior Surface Area {m3/s-m2}
  ,                                       !- Air Changes per Hour {1/hr}
  ,                                       !- Constant Term Coefficient
  ,                                       !- Temperature Term Coefficient
  ,                                       !- Velocity Term Coefficient
  ;                                       !- Velocity Squared Term Coefficient

OS:Schedule:Ruleset,
  {e8a018c4-07a0-45fa-8862-b93b02d5dcac}, ! Handle
  LargeHotel Infil Quarter On,            ! Name
  {985df695-6fb1-413d-9289-ae851ca812ba}, ! Schedule Type Limits Name
  {ebc968e3-1225-4f49-a876-eb575e158d0d}, ! Default Day Schedule Name
  {8247bb45-9cde-4b93-aa23-ed230572aa48}, ! Summer Design Day Schedule Name
  {645c6e15-18fc-4a85-bfe0-27d74abac88c}; ! Winter Design Day Schedule Name

OS:Schedule:Day,
  {ebc968e3-1225-4f49-a876-eb575e158d0d}, ! Handle
  LargeHotel Infil Quarter On Default Schedule, ! Name
  {985df695-6fb1-413d-9289-ae851ca812ba}, ! Schedule Type Limits Name
  ,                                       ! Interpolate to Timestep
  24,                                     !- Hour 1
  0,                                      !- Minute 1
  0.25;                                   !- Value Until Time 1

OS:Schedule:Day,
  {8247bb45-9cde-4b93-aa23-ed230572aa48}, ! Handle
  LargeHotel Infil Quarter On Summer Design Day, ! Name
  {985df695-6fb1-413d-9289-ae851ca812ba}, ! Schedule Type Limits Name
  ,                                       ! Interpolate to Timestep
  24,                                     ! Hour 1
  0,                                      ! Minute 1
  0.25;                                   ! Value Until Time 1

OS:Schedule:Day,
  {645c6e15-18fc-4a85-bfe0-27d74abac88c}, ! Handle
  LargeHotel Infil Quarter On Winter Design Day, ! Name
  {985df695-6fb1-413d-9289-ae851ca812ba}, ! Schedule Type Limits Name
  ,                                       ! Interpolate to Timestep
  24,                                     ! Hour 1
  0,                                      ! Minute 1
  0.25;                                   ! Value Until Time 1

OS:ElectricEquipment:Definition,
  {7103c3fb-5b48-4efa-bcab-b3b07b472277}, !- Handle