
OS:Version,
  {c83e842d-9dd5-4ede-8583-3dd7844281cc}, !- Handle
  1.6.0;                                  !- Version Identifier

OS:ClimateZones,
  {00dda828-8d9d-4465-bd4d-0c0c556ea992}, !- Handle
  ,                                       !- Active Institution
  ,                                       !- Active Year
  ASHRAE,                                 !- Climate Zone Institution Name 1
  ANSI/ASHRAE Standard 169,               !- Climate Zone Document Name 1
  2006,                                   !- Climate Zone Document Year 1
  ,                                       !- Climate Zone Value 1
  CEC,                                    !- Climate Zone Institution Name 2
  California Climate Zone Descriptions,   !- Climate Zone Document Name 2
  1995,                                   !- Climate Zone Document Year 2
  ;                                       !- Climate Zone Value 2

OS:LifeCycleCost:Parameters,
  {6a4fbf89-81ad-4d65-b366-afd317fb7f33}, !- Handle
  FEMP,                                   !- Analysis Type
  ,                                       !- Discounting Convention
  ,                                       !- Inflation Approach
  ,                                       !- Real Discount Rate
  ,                                       !- Nominal Discount Rate
  ,                                       !- Inflation
  ,                                       !- Base Date Month
  ,                                       !- Base Date Year
  ,                                       !- Service Date Month
  ,                                       !- Service Date Year
  ,                                       !- Length of Study Period in Years
  ,                                       !- Tax Rate
  ,                                       !- Depreciation Method
  Yes;                                    !- Use NIST Fuel Escalation Rates

OS:YearDescription,
  {6db9d436-efda-4d1c-99cd-5e575aafcf98}; !- Handle

OS:Building,
  {aed50290-79f3-49ec-b232-91325ed1b660}, !- Handle
  Building 1,                             !- Name
  ,                                       !- Building Sector Type
  ,                                       !- North Axis {deg}
  ,                                       !- Nominal Floor to Floor Height {m}
  {81a047aa-093f-49dd-8439-6337db0fdee7}, !- Space Type Name
  {9e623744-7792-4775-9439-730ac8e008b9}, !- Default Construction Set Name
  ;                                       !- Default Schedule Set Name

OS:Facility,
  {57faeb43-443e-4961-8221-fe11336fdc41}; !- Handle

OS:SpaceType,
  {c8e2dad4-c831-42e6-89b6-0a2cee3ad800}, !- Handle
  DOE Ref 2004 - LrgHotel - Banquet,      !- Name
  ,                                       !- Default Construction Set Name
  {f4abc93c-a6b5-42e5-8b21-f3c3542f5e80}, !- Default Schedule Set Name
  {7a846def-1e1c-4754-8481-cd0e36b0acc9}, !- Group Rendering Name
  {5fbcea56-e5ca-40bb-92e1-336b68921de1}, !- Design Specification Outdoor Air Object Name
  LargeHotel,                             !- Standards Building Type
  Banquet;                                !- Standards Space Type

OS:Rendering:Color,
  {7a846def-1e1c-4754-8481-cd0e36b0acc9}, !- Handle
  Rendering Color 1,                      !- Name
  230,                                    !- Rendering Red Value
  196,                                    !- Rendering Green Value
  120;                                    !- Rendering Blue Value

OS:DefaultScheduleSet,
  {f4abc93c-a6b5-42e5-8b21-f3c3542f5e80}, !- Handle
  DOE Ref 2004 - LrgHotel - Banquet Schedule Set, !- Name
  ,                                       !- Hours of Operation Schedule Name
  {529ed2f0-b3f9-4918-b75d-9c6333977bdf}, !- Number of People Schedule Name
  {56849706-ad88-4530-a515-6ed3e610db99}, !- People Activity Level Schedule Name
  {7c853a66-26ee-4ab4-adeb-8030dbaf8dce}, !- Lighting Schedule Name
  {29d4edf7-cf6a-436b-94f2-09a46657bd96}, !- Electric Equipment Schedule Name
  ,                                       !- Gas Equipment Schedule Name
  ,                                       !- Hot Water Equipment Schedule Name
  {40b381fd-eedc-4ef1-8b76-d3a34443aba8}, !- Infiltration Schedule Name
  ,                                       !- Steam Equipment Schedule Name
  ;                                       !- Other Equipment Schedule Name

OS:Lights:Definition,
  {518f5970-99f4-4761-b453-993a7169ff23}, !- Handle
  DOE Ref 2004 - LrgHotel - Banquet Lights Definition, !- Name
  Watts/Area,                             !- Design Level Calculation Method
  ,                                       !- Lighting Level {W}
  13.9930835417226,                       !- Watts per Space Floor Area {W/m2}
  ;                                       !- Watts per Person {W/person}

OS:Lights,
  {e420ba9d-2bd4-4926-8c31-5294e2bc971d}, !- Handle
  DOE Ref 2004 - LrgHotel - Banquet Lights, !- Name
  {518f5970-99f4-4761-b453-993a7169ff23}, !- Lights Definition Name
  {c8e2dad4-c831-42e6-89b6-0a2cee3ad800}; !- Space or SpaceType Name

OS:Schedule:Ruleset,
  {7c853a66-26ee-4ab4-adeb-8030dbaf8dce}, ! Handle
  LargeHotel Bldg Light,                  ! Name
  {cd4b3817-7db6-486d-9c59-7888b6ac3015}, ! Schedule Type Limits Name
  {f2610675-48aa-465c-a416-925e606b87d1}, ! Default Day Schedule Name
  {9c79e807-f5e7-4069-a3ac-6ba1ecaef7de}, ! Summer Design Day Schedule Name
  {d5916626-4a42-4fba-882d-31a3bddb133d}; ! Winter Design Day Schedule Name

OS:ScheduleTypeLimits,
  {cd4b3817-7db6-486d-9c59-7888b6ac3015}, ! Handle
  Fraction,                               ! Name
  0,                                      ! Lower Limit Value
  1,                                      ! Upper Limit Value
  CONTINUOUS;                             ! Numeric Type

OS:Schedule:Day,
  {f2610675-48aa-465c-a416-925e606b87d1}, ! Handle
  LargeHotel Bldg Light Default Schedule, ! Name
  {cd4b3817-7db6-486d-9c59-7888b6ac3015}, ! Schedule Type Limits Name
  ,                                       ! Interpolate to Timestep
  1,                                      !- Hour 1
  0,                                      !- Minute 1
  0.2,                                    !- Value Until Time 1
  2,                                      !- Hour 2
  0,                                      !- Minute 2
  0.15,                                   !- Value Until Time 2
  5,                                      !- Hour 3
  0,                                      !- Minute 3
  0.1,                                    !- Value Until Time 3
  6,                                      !- Hour 4
  0,                                      !- Minute 4
  0.2,                                    !- Value Until Time 4
  7,                                      !- Hour 5
  0,                                      !- Minute 5
  0.4,                                    !- Value Until Time 5
  8,                                      !- Hour 6
  0,                                      !- Minute 6
  0.5,                                    !- Value Until Time 6
  10,                                     !- Hour 7
  0,                                      !- Minute 7
  0.4,                                    !- Value Until Time 7
  18,                                     !- Hour 8
  0,                                      !- Minute 8
  0.25,                                   !- Value Until Time 8
  19,                                     !- Hour 9
  0,                                      !- Minute 9
  0.6,                                    !- Value Until Time 9
  20,                                     !- Hour 10
  0,                                      !- Minute 10
  0.8,                                    !- Value Until Time 10
  21,                                     !- Hour 11
  0,                                      !- Minute 11
  0.9,                                    !- Value Until Time 11
  22,                                     !- Hour 12
  0,                                      !- Minute 12
  0.8,                                    !- Value Until Time 12
  23,                                     !- Hour 13
  0,                                      !- Minute 13
  0.6,                                    !- Value Until Time 13
  24,                                     !- Hour 14
  0,                                      !- Minute 14
  0.3;                                    !- Value Until Time 14

OS:Schedule:Day,
  {9c79e807-f5e7-4069-a3ac-6ba1ecaef7de}, ! Handle
  LargeHotel Bldg Light Summer Design Day, ! Name
  {cd4b3817-7db6-486d-9c59-7888b6ac3015}, ! Schedule Type Limits Name
  ,                                       ! Interpolate to Timestep
  24,                                     ! Hour 1
  0,                                      ! Minute 1
  1;                                      ! Value Until Time 1

OS:Schedule:Day,
  {d5916626-4a42-4fba-882d-31a3bddb133d}, ! Handle
  LargeHotel Bldg Light Winter Design Day, ! Name
  {cd4b3817-7db6-486d-9c59-7888b6ac3015}, ! Schedule Type Limits Name
  ,                                       ! Interpolate to Timestep
  24,                                     ! Hour 1
  0,                                      ! Minute 1
  0;                                      ! Value Until Time 1

OS:Schedule:Rule,
  {8cefb132-e2fd-473f-a3af-d2bfdbb0abde}, ! Handle
  LargeHotel Bldg Light Rule 1,           ! Name
  {7c853a66-26ee-4ab4-adeb-8030dbaf8dce}, ! Schedule Ruleset Name
  0,                                      ! Rule Order
  {8b28779e-9a2b-45ba-ae19-cf784097fb85}, ! Day Schedule Name
  Yes,                                    ! Apply Sunday
  No,                                     ! Apply Monday
  No,                                     ! Apply Tuesday
  No,                                     ! Apply Wednesday
  No,                                     ! Apply Thursday
  No,                                     ! Apply Friday
  No,                                     ! Apply Saturday
  ,                                       ! Apply Holiday
  DateRange,                              ! Date Specification Type
  1,                                      ! Start Month
  1,                                      ! Start Day
  12,                                     ! End Month
  31;                                     ! End Day

OS:Schedule:Day,
  {8b28779e-9a2b-45ba-ae19-cf784097fb85}, ! Handle
  LargeHotel Bldg Light Rule 1 Day Schedule, ! Name
  {cd4b3817-7db6-486d-9c59-7888b6ac3015}, ! Schedule Type Limits Name
  ,                                       ! Interpolate to Timestep
  2,                                      ! Hour 1
  0,                                      ! Minute 1
  0.29999999999999999,                    ! Value Until Time 1
  6,                                      ! Hour 2
  0,                                      ! Minute 2
  0.20000000000000001,                    ! Value Until Time 2
  7,                                      ! Hour 3
  0,                                      ! Minute 3
  0.29999999999999999,                    ! Value Until Time 3
  9,                                      ! Hour 4
  0,                                      ! Minute 4
  0.40000000000000002,                    ! Value Until Time 4
  13,                                     ! Hour 5
  0,                                      ! Minute 5
  0.29999999999999999,                    ! Value Until Time 5
  18,                                     ! Hour 6
  0,                                      ! Minute 6
  0.20000000000000001,                    ! Value Until Time 6
  19,                                     ! Hour 7
  0,                                      ! Minute 7
  0.5,                                    ! Value Until Time 7
  20,                                     ! Hour 8
  0,                                      ! Minute 8
  0.69999999999999996,                    ! Value Until Time 8
  21,                                     ! Hour 9
  0,                                      ! Minute 9
  0.80000000000000004,                    ! Value Until Time 9
  22,                                     ! Hour 10
  0,                                      ! Minute 10
  0.59999999999999998,                    ! Value Until Time 10
  23,                                     ! Hour 11
  0,                                      ! Minute 11
  0.5,                                    ! Value Until Time 11
  24,                                     ! Hour 12
  0,                                      ! Minute 12
  0.29999999999999999;                    ! Value Until Time 12

OS:Schedule:Rule,
  {724b425b-88a3-4f62-9a72-6525f5dcc758}, ! Handle
  LargeHotel Bldg Light Rule 2,           ! Name
  {7c853a66-26ee-4ab4-adeb-8030dbaf8dce}, ! Schedule Ruleset Name
  1,                                      ! Rule Order
  {9096e944-70f8-4628-9398-3329fda04692}, ! Day Schedule Name
  No,                                     ! Apply Sunday
  No,                                     ! Apply Monday
  No,                                     ! Apply Tuesday
  No,                                     ! Apply Wednesday
  No,                                     ! Apply Thursday
  No,                                     ! Apply Friday
  Yes,                                    ! Apply Saturday
  ,                                       ! Apply Holiday
  DateRange,                              ! Date Specification Type
  1,                                      ! Start Month
  1,                                      ! Start Day
  12,                                     ! End Month
  31;                                     ! End Day

OS:Schedule:Day,
  {9096e944-70f8-4628-9398-3329fda04692}, ! Handle
  LargeHotel Bldg Light Rule 2 Day Schedule, ! Name
  {cd4b3817-7db6-486d-9c59-7888b6ac3015}, ! Schedule Type Limits Name
  ,                                       ! Interpolate to Timestep
  2,                                      ! Hour 1
  0,                                      ! Minute 1
  0.20000000000000001,                    ! Value Until Time 1
  6,                                      ! Hour 2
  0,                                      ! Minute 2
  0.10000000000000001,                    ! Value Until Time 2
  8,                                      ! Hour 3
  0,                                      ! Minute 3
  0.29999999999999999,                    ! Value Until Time 3
  10,                                     ! Hour 4
  0,                                      ! Minute 4
  0.40000000000000002,                    ! Value Until Time 4
  11,                                     ! Hour 5
  0,                                      ! Minute 5
  0.29999999999999999,                    ! Value Until Time 5
  18,                                     ! Hour 6
  0,                                      ! Minute 6
  0.25,                                   ! Value Until Time 6
  19,                                     ! Hour 7
  0,                                      ! Minute 7
  0.59999999999999998,                    ! Value Until Time 7
  22,                                     ! Hour 8
  0,                                      ! Minute 8
  0.69999999999999996,                    ! Value Until Time 8
  23,                                     ! Hour 9
  0,                                      ! Minute 9
  0.59999999999999998,                    ! Value Until Time 9
  24,                                     ! Hour 10
  0,                                      ! Minute 10
  0.29999999999999999;                    ! Value Until Time 10

OS:DesignSpecification:OutdoorAir,
  {5fbcea56-e5ca-40bb-92e1-336b68921de1}, !- Handle
  DOE Ref 2004 - LrgHotel - Banquet Ventilation, !- Name
  Sum,                                    !- Outdoor Air Method
  0.009438948864,                         !- Outdoor Air Flow per Person {m3/s-person}
  ,                                       !- Outdoor Air Flow per Floor Area {m3/s-m2}
  ,                                       !- Outdoor Air Flow Rate {m3/s}
  ,                                       !- Outdoor Air Flow Air Changes per Hour {1/hr}
  ;                                       !- Outdoor Air Flow Rate Fraction Schedule Name

OS:People:Definition,
  {bd1dbc3e-930d-4bb8-bc14-ad39edf7d22d}, !- Handle
  DOE Ref 2004 - LrgHotel - Banquet People Definition, !- Name
  People/Area,                            !- Number of People Calculation Method
  ,                                       !- Number of People {people}
  0.721181997919551,                      !- People per Space Floor Area {person/m2}
  ,                                       !- Space Floor Area per Person {m2/person}
  0.3;                                    !- Fraction Radiant

OS:People,
  {fa7eceea-0b01-49bc-980a-f65c50ffcdd6}, !- Handle
  DOE Ref 2004 - LrgHotel - Banquet People, !- Name
  {bd1dbc3e-930d-4bb8-bc14-ad39edf7d22d}, !- People Definition Name
  {c8e2dad4-c831-42e6-89b6-0a2cee3ad800}; !- Space or SpaceType Name

OS:Schedule:Ruleset,
  {529ed2f0-b3f9-4918-b75d-9c6333977bdf}, ! Handle
  LargeHotel Bldg Occ,                    ! Name
  {cd4b3817-7db6-486d-9c59-7888b6ac3015}, ! Schedule Type Limits Name
  {9e3535a7-ee54-47b8-b400-3edd936b63f8}, ! Default Day Schedule Name
  {c0daba72-b30e-426a-8c8e-78f89780cd5c}, ! Summer Design Day Schedule Name
  {120a3cf6-b084-4662-afbe-c2c416dfcb3a}; ! Winter Design Day Schedule Name

OS:Schedule:Day,
  {9e3535a7-ee54-47b8-b400-3edd936b63f8}, ! Handle
  LargeHotel Bldg Occ Default Schedule,   ! Name
  {cd4b3817-7db6-486d-9c59-7888b6ac3015}, ! Schedule Type Limits Name
  ,                                       ! Interpolate to Timestep
  6,                                      !- Hour 1
  0,                                      !- Minute 1
  0.9,                                    !- Value Until Time 1
  7,                                      !- Hour 2
  0,                                      !- Minute 2
  0.7,                                    !- Value Until Time 2
  9,                                      !- Hour 3
  0,                                      !- Minute 3
  0.4,                                    !- Value Until Time 3
  15,                                     !- Hour 4
  0,                                      !- Minute 4
  0.2,                                    !- Value Until Time 4
  16,                                     !- Hour 5
  0,                                      !- Minute 5
  0.3,                                    !- Value Until Time 5
  19,                                     !- Hour 6
  0,                                      !- Minute 6
  0.5,                                    !- Value Until Time 6
  21,                                     !- Hour 7
  0,                                      !- Minute 7
  0.7,                                    !- Value Until Time 7
  22,                                     !- Hour 8
  0,                                      !- Minute 8
  0.8,                                    !- Value Until Time 8
  24,                                     !- Hour 9
  0,                                      !- Minute 9
  0.9;                                    !- Value Until Time 9

OS:Schedule:Day,
  {c0daba72-b30e-426a-8c8e-78f89780cd5c}, ! Handle
  LargeHotel Bldg Occ Summer Design Day,  ! Name
  {cd4b3817-7db6-486d-9c59-7888b6ac3015}, ! Schedule Type Limits Name
  ,                                       ! Interpolate to Timestep
  24,                                     ! Hour 1
  0,                                      ! Minute 1
  1;                                      ! Value Until Time 1

OS:Schedule:Day,
  {120a3cf6-b084-4662-afbe-c2c416dfcb3a}, ! Handle
  LargeHotel Bldg Occ Winter Design Day,  ! Name
  {cd4b3817-7db6-486d-9c59-7888b6ac3015}, ! Schedule Type Limits Name
  ,                                       ! Interpolate to Timestep
  24,                                     ! Hour 1
  0,                                      ! Minute 1
  0;                                      ! Value Until Time 1

OS:Schedule:Rule,
  {bf06dc0c-27a1-4c7c-8f1d-7ccffe9c624b}, ! Handle
  LargeHotel Bldg Occ Rule 1,             ! Name
  {529ed2f0-b3f9-4918-b75d-9c6333977bdf}, ! Schedule Ruleset Name
  0,                                      ! Rule Order
  {f9c113db-3ea4-4531-9471-2fe237305cc0}, ! Day Schedule Name
  Yes,                                    ! Apply Sunday
  No,                                     ! Apply Monday
  No,                                     ! Apply Tuesday
  No,                                     ! Apply Wednesday
  No,                                     ! Apply Thursday
  No,                                     ! Apply Friday
  No,                                     ! Apply Saturday
  ,                                       ! Apply Holiday
  DateRange,                              ! Date Specification Type
  1,                                      ! Start Month
  1,                                      ! Start Day
  12,                                     ! End Month
  31;                                     ! End Day

OS:Schedule:Day,
  {f9c113db-3ea4-4531-9471-2fe237305cc0}, ! Handle
  LargeHotel Bldg Occ Rule 1 Day Schedule, ! Name
  {cd4b3817-7db6-486d-9c59-7888b6ac3015}, ! Schedule Type Limits Name
  ,                                       ! Interpolate to Timestep
  8,                                      ! Hour 1
  0,                                      ! Minute 1
  0.69999999999999996,                    ! Value Until Time 1
  11,                                     ! Hour 2
  0,                                      ! Minute 2
  0.5,                                    ! Value Until Time 2
  13,                                     ! Hour 3
  0,                                      ! Minute 3
  0.29999999999999999,                    ! Value Until Time 3
  16,                                     ! Hour 4
  0,                                      ! Minute 4
  0.20000000000000001,                    ! Value Until Time 4
  17,                                     ! Hour 5
  0,                                      ! Minute 5
  0.29999999999999999,                    ! Value Until Time 5
  19,                                     ! Hour 6
  0,                                      ! Minute 6
  0.40000000000000002,                    ! Value Until Time 6
  21,                                     ! Hour 7
  0,                                      ! Minute 7
  0.59999999999999998,                    ! Value Until Time 7
  24,                                     ! Hour 8
  0,                                      ! Minute 8
  0.80000000000000004;                    ! Value Until Time 8

OS:Schedule:Rule,
  {d8b48a57-a787-48f6-b690-c1a7728dce15}, ! Handle
  LargeHotel Bldg Occ Rule 2,             ! Name
  {529ed2f0-b3f9-4918-b75d-9c6333977bdf}, ! Schedule Ruleset Name
  1,                                      ! Rule Order
  {80b35e1b-7970-4ffd-8708-81113b759793}, ! Day Schedule Name
  No,                                     ! Apply Sunday
  No,                                     ! Apply Monday
  No,                                     ! Apply Tuesday
  No,                                     ! Apply Wednesday
  No,                                     ! Apply Thursday
  No,                                     ! Apply Friday
  Yes,                                    ! Apply Saturday
  ,                                       ! Apply Holiday
  DateRange,                              ! Date Specification Type
  1,                                      ! Start Month
  1,                                      ! Start Day
  12,                                     ! End Month
  31;                                     ! End Day

OS:Schedule:Day,
  {80b35e1b-7970-4ffd-8708-81113b759793}, ! Handle
  LargeHotel Bldg Occ Rule 2 Day Schedule, ! Name
  {cd4b3817-7db6-486d-9c59-7888b6ac3015}, ! Schedule Type Limits Name
  ,                                       ! Interpolate to Timestep
  6,                                      ! Hour 1
  0,                                      ! Minute 1
  0.90000000000000002,                    ! Value Until Time 1
  7,                                      ! Hour 2
  0,                                      ! Minute 2
  0.69999999999999996,                    ! Value Until Time 2
  9,                                      ! Hour 3
  0,                                      ! Minute 3
  0.5,                                    ! Value Until Time 3
  17,                                     ! Hour 4
  0,                                      ! Minute 4
  0.29999999999999999,                    ! Value Until Time 4
  18,                                     ! Hour 5
  0,                                      ! Minute 5
  0.5,                                    ! Value Until Time 5
  21,                                     ! Hour 6
  0,                                      ! Minute 6
  0.59999999999999998,                    ! Value Until Time 6
  24,                                     ! Hour 7
  0,                                      ! Minute 7
  0.69999999999999996;                    ! Value Until Time 7

OS:Schedule:Ruleset,
  {56849706-ad88-4530-a515-6ed3e610db99}, ! Handle
  LargeHotel Activity,                    ! Name
  {b358aa60-1038-4ff6-b930-237aa99de60f}, ! Schedule Type Limits Name
  {cb02e6d4-4569-42ef-87e2-74cbee0f0e6e}, ! Default Day Schedule Name
  {c3b9080b-173e-4a87-b9df-71b3f864cb31}, ! Summer Design Day Schedule Name
  {08ec0736-7891-4884-bcf9-3c7d9f0a9b88}; ! Winter Design Day Schedule Name

OS:ScheduleTypeLimits,
  {b358aa60-1038-4ff6-b930-237aa99de60f}, !- Handle
  ActivityLevel 3,                        !- Name
  0,                                      !- Lower Limit Value {BasedOnField A4}
  ,                                       !- Upper Limit Value {BasedOnField A4}
  Continuous,                             !- Numeric Type
  ActivityLevel;                          !- Unit Type

OS:Schedule:Day,
  {cb02e6d4-4569-42ef-87e2-74cbee0f0e6e}, ! Handle
  LargeHotel Activity Default Schedule,   ! Name
  {b358aa60-1038-4ff6-b930-237aa99de60f}, ! Schedule Type Limits Name
  ,                                       ! Interpolate to Timestep
  24,                                     !- Hour 1
  0,                                      !- Minute 1
  120;                                    !- Value Until Time 1

OS:Schedule:Day,
  {c3b9080b-173e-4a87-b9df-71b3f864cb31}, ! Handle
  LargeHotel Activity Summer Design Day,  ! Name
  {b358aa60-1038-4ff6-b930-237aa99de60f}, ! Schedule Type Limits Name
  ,                                       ! Interpolate to Timestep
  24,                                     ! Hour 1
  0,                                      ! Minute 1
  120;                                    ! Value Until Time 1

OS:Schedule:Day,
  {08ec0736-7891-4884-bcf9-3c7d9f0a9b88}, ! Handle
  LargeHotel Activity Winter Design Day,  ! Name
  {b358aa60-1038-4ff6-b930-237aa99de60f}, ! Schedule Type Limits Name
  ,                                       ! Interpolate to Timestep
  24,                                     ! Hour 1
  0,                                      ! Minute 1
  120;                                    ! Value Until Time 1

OS:SpaceInfiltration:DesignFlowRate,
  {d0c47e81-91a6-40ba-8633-38c5a8a83d57}, !- Handle
  DOE Ref 2004 - LrgHotel - Banquet Infiltration, !- Name
  {c8e2dad4-c831-42e6-89b6-0a2cee3ad800}, !- Space or SpaceType Name
  ,                                       !- Schedule Name
  Flow/ExteriorArea,                      !- Design Flow Rate Calculation Method
  ,                                       !- Design Flow Rate {m3/s}
  ,                                       !- Flow per Space Floor Area {m3/s-m2}
  0.00030226,                             !- Flow per Exterior Surface Area {m3/s-m2}
  ,                                       !- Air Changes per Hour {1/hr}
  ,                                       !- Constant Term Coefficient
  ,                                       !- Temperature Term Coefficient
  ,                                       !- Velocity Term Coefficient
  ;                                       !- Velocity Squared Term Coefficient

OS:Schedule:Ruleset,
  {40b381fd-eedc-4ef1-8b76-d3a34443aba8}, ! Handle
  LargeHotel Infil Quarter On,            ! Name
  {cd4b3817-7db6-486d-9c59-7888b6ac3015}, ! Schedule Type Limits Name
  {e5287835-620d-4744-9dd1-bc984ed0aed0}, ! Default Day Schedule Name
  {bc5e1b1a-1804-42fd-ad97-4e3af4321e7e}, ! Summer Design Day Schedule Name
  {736c87e6-d3bd-4c9e-8470-843551383d90}; ! Winter Design Day Schedule Name

OS:Schedule:Day,
  {e5287835-620d-4744-9dd1-bc984ed0aed0}, ! Handle
  LargeHotel Infil Quarter On Default Schedule, ! Name
  {cd4b3817-7db6-486d-9c59-7888b6ac3015}, ! Schedule Type Limits Name
  ,                                       ! Interpolate to Timestep
  24,                                     !- Hour 1
  0,                                      !- Minute 1
  0.25;                                   !- Value Until Time 1

OS:Schedule:Day,
  {bc5e1b1a-1804-42fd-ad97-4e3af4321e7e}, ! Handle
  LargeHotel Infil Quarter On Summer Design Day, ! Name
  {cd4b3817-7db6-486d-9c59-7888b6ac3015}, ! Schedule Type Limits Name
  ,                                       ! Interpolate to Timestep
  24,                                     ! Hour 1
  0,                                      ! Minute 1
  0.25;                                   ! Value Until Time 1

OS:Schedule:Day,
  {736c87e6-d3bd-4c9e-8470-843551383d90}, ! Handle
  LargeHotel Infil Quarter On Winter Design Day, ! Name
  {cd4b3817-7db6-486d-9c59-7888b6ac3015}, ! Schedule Type Limits Name
  ,                                       ! Interpolate to Timestep
  24,                                     ! Hour 1
  0,                                      ! Minute 1
  0.25;                                   ! Value Until Time 1

OS:ElectricEquipment:Definition,
  {d81d63c3-d335-472b-bc24-757cb6bffb35}, !- Handle