
OS:Version,
  {c83e842d-9dd5-4ede-8583-3dd7844281cc}, !- Handle
  1.6.0;                                  !- Version Identifier

OS:ClimateZones,
  {00dda828-8d9d-4465-bd4d-0c0c556ea992}, !- Handle
  ,                                       !- Active Institution
  ,                                       !- Active Year
  ASHRAE,                                 !- Climate Zone Institution Name 1
  ANSI/ASHRAE Standard 169,               !- Climate Zone Document Name 1
  2006,                                   !- Climate Zone Document Year 1
  ,                                       !- Climate Zone Value 1
  CEC,                                    !- Climate Zone Institution Name 2
  California Climate Zone Descriptions,   !- Climate Zone Document Name 2
  1995,                                   !- Climate Zone Document Year 2
  ;                                       !- Climate Zone Value 2

OS:LifeCycleCost:Parameters,
  {6a4fbf89-81ad-4d65-b366-afd317fb7f33}, !- Handle
  FEMP,                                   !- Analysis Type
  ,                                       !- Discounting Convention
  ,                                       !- Inflation Approach
  ,                                       !- Real Discount Rate
  ,                                       !- Nominal Discount Rate
  ,                                       !- Inflation
  ,                                       !- Base Date Month
  ,                                       !- Base Date Year
  ,                                       !- Service Date Month
  ,                                       !- Service Date Year
  ,                                       !- Length of Study Period in Years
  ,                                       !- Tax Rate
  ,                                       !- Depreciation Method
  Yes;                                    !- Use NIST Fuel Escalation Rates

OS:YearDescription,
  {6db9d436-efda-4d1c-99cd-5e575aafcf98}; !- Handle

OS:Building,
  {aed50290-79f3-49ec-b232-91325ed1b660}, !- Handle
  Building 1,                             !- Name
  ,                                       !- Building Sector Type
  ,                                       !- North Axis {deg}
  ,                                       !- Nominal Floor to Floor Height {m}
  {60c8538c-c62b-41d9-a7a0-041c48af0307}, !- Space Type Name
  {ce1d540a-ae25-4da7-9877-84847bee6d77}, !- Default Construction Set Name
  ;                                       !- Default Schedule Set Name

OS:Facility,
  {57faeb43-443e-4961-8221-fe11336fdc41}; !- Handle

OS:SpaceType,
  {3c205a59-b2f3-4020-9c98-d07714bd9d71}, !- Handle
  DOE Ref 2004 - Office - BreakRoom,      !- Name
  ,                                       !- Default Construction Set Name
  {a8367f1e-ac7a-4d5d-93ed-04a10b489e51}, !- Default Schedule Set Name
  {15ab9743-dec0-4a08-9137-fb592ea2e82b}, !- Group Rendering Name
  {01b33b8e-aced-46af-845d-b21e7f9c383e}, !- Design Specification Outdoor Air Object Name
  Office,                                 !- Standards Building Type
  BreakRoom;                              !- Standards Space Type

OS:Rendering:Color,
  {15ab9743-dec0-4a08-9137-fb592ea2e82b}, !- Handle
  Rendering Color 1,                      !- Name
  230,                                    !- Rendering Red Value
  157,                                    !- Rendering Green Value
  120;                                    !- Rendering Blue Value

OS:DefaultScheduleSet,
  {a8367f1e-ac7a-4d5d-93ed-04a10b489e51}, !- Handle
  DOE Ref 2004 - Office - BreakRoom Schedule Set, !- Name
  ,                                       !- Hours of Operation Schedule Name
  {42bc9185-188c-4460-9be6-11faa1c27b2f}, !- Number of People Schedule Name
  {98705b2e-2e52-43a5-801f-7a9f15eefc75}, !- People Activity Level Schedule Name
  {80d58d46-3a7e-4b35-afc8-e1cf72cd899c}, !- Lighting Schedule Name
  {364ab6cc-0318-4e1c-8747-19c78bb570cb}, !- Electric Equipment Schedule Name
  ,                                       !- Gas Equipment Schedule Name
  ,                                       !- Hot Water Equipment Schedule Name
  {6a897e35-ded1-410b-8818-210cbd86f97d}, !- Infiltration Schedule Name
  ,                                       !- Steam Equipment Schedule Name
  ;                                       !- Other Equipment Schedule Name

OS:Lights:Definition,
  {a6ffb282-2701-4a47-bb58-bbe83e142208}, !- Handle
  DOE Ref 2004 - Office - BreakRoom Lights Definition, !- Name
  Watts/Area,                             !- Design Level Calculation Method
  ,                                       !- Lighting Level {W}
  12.9166925000517,                       !- Watts per Space Floor Area {W/m2}
  ;                                       !- Watts per Person {W/person}

OS:Lights,
  {ca852baa-eb2a-4515-a867-15ba47a65e61}, !- Handle
  DOE Ref 2004 - Office - BreakRoom Lights, !- Name
  {a6ffb282-2701-4a47-bb58-bbe83e142208}, !- Lights Definition Name
  {3c205a59-b2f3-4020-9c98-d07714bd9d71}; !- Space or SpaceType Name

OS:Schedule:Ruleset,
  {80d58d46-3a7e-4b35-afc8-e1cf72cd899c}, ! Handle
  Office Bldg Light,                      ! Name
  {b4f5cf3f-deee-4181-ba5d-fce10e474dce}, ! Schedule Type Limits Name
  {b5133a1d-c4af-49b2-b918-755edae6690d}, ! Default Day Schedule Name
  {3e87d804-8e53-491c-a80e-4bdde0b8cc41}, ! Summer Design Day Schedule Name
  {902496af-1a3a-4511-a8fc-52b8178c83a5}; ! Winter Design Day Schedule Name

OS:ScheduleTypeLimits,
  {b4f5cf3f-deee-4181-ba5d-fce10e474dce}, ! Handle
  Fraction,                               ! Name
  0,                                      ! Lower Limit Value
  1,                                      ! Upper Limit Value
  CONTINUOUS;                             ! Numeric Type

OS:Schedule:Day,
  {b5133a1d-c4af-49b2-b918-755edae6690d}, ! Handle
  Office Bldg Light Default Schedule,     ! Name
  {b4f5cf3f-deee-4181-ba5d-fce10e474dce}, ! Schedule Type Limits Name
  ,                                       ! Interpolate to Timestep
  5,                                      !- Hour 1
  0,                                      !- Minute 1
  0.05,                                   !- Value Until Time 1
  7,                                      !- Hour 2
  0,                                      !- Minute 2
  0.1,                                    !- Value Until Time 2
  8,                                      !- Hour 3
  0,                                      !- Minute 3
  0.3,                                    !- Value Until Time 3
  17,                                     !- Hour 4
  0,                                      !- Minute 4
  0.9,                                    !- Value Until Time 4
  18,                                     !- Hour 5
  0,                                      !- Minute 5
  0.7,                                    !- Value Until Time 5
  20,                                     !- Hour 6
  0,                                      !- Minute 6
  0.5,                                    !- Value Until Time 6
  22,                                     !- Hour 7
  0,                                      !- Minute 7
  0.3,                                    !- Value Until Time 7
  23,                                     !- Hour 8
  0,                                      !- Minute 8
  0.1,                                    !- Value Until Time 8
  24,                                     !- Hour 9
  0,                                      !- Minute 9
  0.05;                                   !- Value Until Time 9

OS:Schedule:Day,
  {3e87d804-8e53-491c-a80e-4bdde0b8cc41}, ! Handle
  Office Bldg Light Summer Design Day,    ! Name
  {b4f5cf3f-deee-4181-ba5d-fce10e474dce}, ! Schedule Type Limits Name
  ,                                       ! Interpolate to Timestep
  24,                                     ! Hour 1
  0,                                      ! Minute 1
  1;                                      ! Value Until Time 1

OS:Schedule:Day,
  {902496af-1a3a-4511-a8fc-52b8178c83a5}, ! Handle
  Office Bldg Light Winter Design Day,    ! Name
  {b4f5cf3f-deee-4181-ba5d-fce10e474dce}, ! Schedule Type Limits Name
  ,                                       ! Interpolate to Timestep
  24,                                     ! Hour 1
  0,                                      ! Minute 1
  0;                                      ! Value Until Time 1

OS:Schedule:Rule,
  {fdf17d34-899f-4c2e-a3e8-7a55310c8e96}, ! Handle
  Office Bldg Light Rule 1,               ! Name
  {80d58d46-3a7e-4b35-afc8-e1cf72cd899c}, ! Schedule Ruleset Name
  0,                                      ! Rule Order
  {a5c5837f-ecd5-476c-81c2-d070377ad462}, ! Day Schedule Name
  Yes,                                    ! Apply Sunday
  No,                                     ! Apply Monday
  No,                                     ! Apply Tuesday
  No,                                     ! Apply Wednesday
  No,                                     ! Apply Thursday
  No,                                     ! Apply Friday
  No,                                     ! Apply Saturday
  ,                                       ! Apply Holiday
  DateRange,                              ! Date Specification Type
  1,                                      ! Start Month
  1,                                      ! Start Day
  12,                                     ! End Month
  31;                                     ! End Day

OS:Schedule:Day,
  {a5c5837f-ecd5-476c-81c2-d070377ad462}, ! Handle
  Office Bldg Light Rule 1 Day Schedule,  ! Name
  {b4f5cf3f-deee-4181-ba5d-fce10e474dce}, ! Schedule Type Limits Name
  ,                                       ! Interpolate to Timestep
  24,                                     ! Hour 1
  0,                                      ! Minute 1
  0.050000000000000003;                   ! Value Until Time 1

OS:Schedule:Rule,
  {8371b00c-9434-4a22-8bb9-9d38a44639ff}, ! Handle
  Office Bldg Light Rule 2,               ! Name
  {80d58d46-3a7e-4b35-afc8-e1cf72cd899c}, ! Schedule Ruleset Name
  1,                                      ! Rule Order
  {9b327fe7-00ce-4bee-8630-2860f1d20dbe}, ! Day Schedule Name
  No,                                     ! Apply Sunday
  No,                                     ! Apply Monday
  No,                                     ! Apply Tuesday
  No,                                     ! Apply Wednesday
  No,                                     ! Apply Thursday
  No,                                     ! Apply Friday
  Yes,                                    ! Apply Saturday
  ,                                       ! Apply Holiday
  DateRange,                              ! Date Specification Type
  1,                                      ! Start Month
  1,                                      ! Start Day
  12,                                     ! End Month
  31;                                     ! End Day

OS:Schedule:Day,
  {9b327fe7-00ce-4bee-8630-2860f1d20dbe}, ! Handle
  Office Bldg Light Rule 2 Day Schedule,  ! Name
  {b4f5cf3f-deee-4181-ba5d-fce10e474dce}, ! Schedule Type Limits Name
  ,                                       ! Interpolate to Timestep
  6,                                      ! Hour 1
  0,                                      ! Minute 1
  0.050000000000000003,                   ! Value Until Time 1
  8,                                      ! Hour 2
  0,                                      ! Minute 2
  0.10000000000000001,                    ! Value Until Time 2
  14,                                     ! Hour 3
  0,                                      ! Minute 3
  0.5,                                    ! Value Until Time 3
  17,                                     ! Hour 4
  0,                                      ! Minute 4
  0.14999999999999999,                    ! Value Until Time 4
  24,                                     ! Hour 5
  0,                                      ! Minute 5
  0.050000000000000003;                   ! Value Until Time 5

OS:DesignSpecification:OutdoorAir,
  {01b33b8e-aced-46af-845d-b21e7f9c383e}, !- Handle
  DOE Ref 2004 - Office - BreakRoom Ventilation, !- Name
  Sum,                                    !- Outdoor Air Method
  0.007079211648,                         !- Outdoor Air Flow per Person {m3/s-person}
  ,                                       !- Outdoor Air Flow per Floor Area {m3/s-m2}
  ,                                       !- Outdoor Air Flow Rate {m3/s}
  ,                                       !- Outdoor Air Flow Air Changes per Hour {1/hr}
  ;                                       !- Outdoor Air Flow Rate Fraction Schedule Name

OS:People:Definition,
  {f1eaecd8-bb97-44b9-b674-36bad0fefe89}, !- Handle
  DOE Ref 2004 - Office - BreakRoom People Definition, !- Name
  People/Area,                            !- Number of People Calculation Method
  ,                                       !- Number of People {people}
  0.538195520835486,                      !- People per Space Floor Area {person/m2}
  ,                                       !- Space Floor Area per Person {m2/person}
  0.3;                                    !- Fraction Radiant

OS:People,
  {2c071e0b-d14f-4ad0-97ef-fd88a6aa2278}, !- Handle
  DOE Ref 2004 - Office - BreakRoom People, !- Name
  {f1eaecd8-bb97-44b9-b674-36bad0fefe89}, !- People Definition Name
  {3c205a59-b2f3-4020-9c98-d07714bd9d71}; !- Space or SpaceType Name

OS:Schedule:Ruleset,
  {42bc9185-188c-4460-9be6-11faa1c27b2f}, ! Handle
  Office Misc Occ,                        ! Name
  {b4f5cf3f-deee-4181-ba5d-fce10e474dce}, ! Schedule Type Limits Name
  {ebf304a7-b5c0-4e21-b6b2-619396cabb3b}, ! Default Day Schedule Name
  {943b3d16-7193-4ffe-9e5c-9d9ac6ab4567}, ! Summer Design Day Schedule Name
  {75a2ccca-d4a4-43ac-9b8e-b82e804e3dfc}; ! Winter Design Day Schedule Name

OS:Schedule:Day,
  {ebf304a7-b5c0-4e21-b6b2-619396cabb3b}, ! Handle
  Office Bldg Occ Default Schedule 1,     ! Name
  {b4f5cf3f-deee-4181-ba5d-fce10e474dce}, ! Schedule Type Limits Name
  ,                                       ! Interpolate to Timestep
  6,                                      !- Hour 1
  0,                                      !- Minute 1
  0,                                      !- Value Until Time 1
  7,                                      !- Hour 2
  0,                                      !- Minute 2
  0.100000001490116,                      !- Value Until Time 2
  8,                                      !- Hour 3
  0,                                      !- Minute 3
  0.200000002980232,                      !- Value Until Time 3
  20,                                     !- Hour 4
  0,                                      !- Minute 4
  0.400000005960464,                      !- Value Until Time 4
  22,                                     !- Hour 5
  0,                                      !- Minute 5
  0.100000001490116,                      !- Value Until Time 5
  24,                                     !- Hour 6
  0,                                      !- Minute 6
  0.0500000007450581;                     !- Value Until Time 6

OS:Schedule:Day,
  {943b3d16-7193-4ffe-9e5c-9d9ac6ab4567}, ! Handle
  Office Bldg Occ Summer Design Day 1,    ! Name
  {b4f5cf3f-deee-4181-ba5d-fce10e474dce}, ! Schedule Type Limits Name
  ,                                       ! Interpolate to Timestep
  6,                                      ! Hour 1
  0,                                      ! Minute 1
  0,                                      ! Value Until Time 1
  22,                                     ! Hour 2
  0,                                      ! Minute 2
  1,                                      ! Value Until Time 2
  24,                                     ! Hour 3
  0,                                      ! Minute 3
  0.050000000000000003;                   ! Value Until Time 3

OS:Schedule:Day,
  {75a2ccca-d4a4-43ac-9b8e-b82e804e3dfc}, ! Handle
  Office Bldg Occ Winter Design Day 1,    ! Name
  {b4f5cf3f-deee-4181-ba5d-fce10e474dce}, ! Schedule Type Limits Name
  ,                                       ! Interpolate to Timestep
  24,                                     ! Hour 1
  0,                                      ! Minute 1
  0;                                      ! Value Until Time 1

OS:Schedule:Rule,
  {f5563046-2015-4a33-beab-993e41d96d7e}, ! Handle
  Office Misc Occ Rule 1,                 ! Name
  {42bc9185-188c-4460-9be6-11faa1c27b2f}, ! Schedule Ruleset Name
  0,                                      ! Rule Order
  {3309b86f-26e0-45a3-acdd-fbe89397193a}, ! Day Schedule Name
  Yes,                                    ! Apply Sunday
  No,                                     ! Apply Monday
  No,                                     ! Apply Tuesday
  No,                                     ! Apply Wednesday
  No,                                     ! Apply Thursday
  No,                                     ! Apply Friday
  No,                                     ! Apply Saturday
  ,                                       ! Apply Holiday
  DateRange,                              ! Date Specification Type
  1,                                      ! Start Month
  1,                                      ! Start Day
  12,                                     ! End Month
  31;                                     ! End Day

OS:Schedule:Day,
  {3309b86f-26e0-45a3-acdd-fbe89397193a}, ! Handle
  Office Bldg Occ Rule 1 Day Schedule 1,  ! Name
  {b4f5cf3f-deee-4181-ba5d-fce10e474dce}, ! Schedule Type Limits Name
  ,                                       ! Interpolate to Timestep
  24,                                     ! Hour 1
  0,                                      ! Minute 1
  0;                                      ! Value Until Time 1

OS:Schedule:Rule,
  {5ac21dce-64d9-484e-8297-5315138c858a}, ! Handle
  Office Misc Occ Rule 2,                 ! Name
  {42bc9185-188c-4460-9be6-11faa1c27b2f}, ! Schedule Ruleset Name
  1,                                      ! Rule Order
  {67f9d0d2-3ec8-46c0-aa75-855fd35e8276}, ! Day Schedule Name
  No,                                     ! Apply Sunday
  No,                                     ! Apply Monday
  No,                                     ! Apply Tuesday
  No,                                     ! Apply Wednesday
  No,                                     ! Apply Thursday
  No,                                     ! Apply Friday
  Yes,                                    ! Apply Saturday
  ,                                       ! Apply Holiday
  DateRange,                              ! Date Specification Type
  1,                                      ! Start Month
  1,                                      ! Start Day
  12,                                     ! End Month
  31;                                     ! End Day

OS:Schedule:Day,
  {67f9d0d2-3ec8-46c0-aa75-855fd35e8276}, ! Handle
  Office Bldg Occ Rule 2 Day Schedule 1,  ! Name
  {b4f5cf3f-deee-4181-ba5d-fce10e474dce}, ! Schedule Type Limits Name
  ,                                       ! Interpolate to Timestep
  6,                                      !- Hour 1
  0,                                      !- Minute 1
  0,                                      !- Value Until Time 1
  8,                                      !- Hour 2
  0,                                      !- Minute 2
  0.100000001490116,                      !- Value Until Time 2
  14,                                     !- Hour 3
  0,                                      !- Minute 3
  0.25,                                   !- Value Until Time 3
  17,                                     !- Hour 4
  0,                                      !- Minute 4
  0.100000001490116,                      !- Value Until Time 4
  24,                                     !- Hour 5
  0,                                      !- Minute 5
  0;                                      !- Value Until Time 5

OS:Schedule:Ruleset,
  {98705b2e-2e52-43a5-801f-7a9f15eefc75}, ! Handle
  Office Activity,                        ! Name
  {cb4cec6f-593c-4e13-b701-7fb019f7a9b2}, ! Schedule Type Limits Name
  {e6f82c3b-b740-48f5-9eaf-72482dd77478}, ! Default Day Schedule Name
  {fe06cfe4-6065-4706-a657-6e4903a9b70e}, ! Summer Design Day Schedule Name
  {95cc5ae4-05b5-4a56-ad59-b56e7740b2be}; ! Winter Design Day Schedule Name

OS:ScheduleTypeLimits,
  {cb4cec6f-593c-4e13-b701-7fb019f7a9b2}, !- Handle
  ActivityLevel,                          !- Name
  0,                                      !- Lower Limit Value {BasedOnField A4}
  ,                                       !- Upper Limit Value {BasedOnField A4}
  Continuous,                             !- Numeric Type
  ActivityLevel;                          !- Unit Type

OS:Schedule:Day,
  {e6f82c3b-b740-48f5-9eaf-72482dd77478}, ! Handle
  Office Activity Default Schedule,       ! Name
  {cb4cec6f-593c-4e13-b701-7fb019f7a9b2}, ! Schedule Type Limits Name
  ,                                       ! Interpolate to Timestep
  24,                                     !- Hour 1
  0,                                      !- Minute 1
  132;                                    !- Value Until Time 1

OS:Schedule:Day,
  {fe06cfe4-6065-4706-a657-6e4903a9b70e}, ! Handle
  Office Activity Summer Design Day,      ! Name
  {cb4cec6f-593c-4e13-b701-7fb019f7a9b2}, ! Schedule Type Limits Name
  ,                                       ! Interpolate to Timestep
  24,                                     !- Hour 1
  0,                                      !- Minute 1
  132;                                    !- Value Until Time 1

OS:Schedule:Day,
  {95cc5ae4-05b5-4a56-ad59-b56e7740b2be}, ! Handle
  Office Activity Winter Design Day,      ! Name
  {cb4cec6f-593c-4e13-b701-7fb019f7a9b2}, ! Schedule Type Limits Name
  ,                                       ! Interpolate to Timestep
  24,                                     !- Hour 1
  0,                                      !- Minute 1
  132;                                    !- Value Until Time 1

OS:SpaceInfiltration:DesignFlowRate,
  {9b26c70b-f384-4430-9a2b-5576cb9f9f4b}, !- Handle
  DOE Ref 2004 - Office - BreakRoom Infiltration, !- Name
  {3c205a59-b2f3-4020-9c98-d07714bd9d71}, !- Space or SpaceType Name
  ,                                       !- Schedule Name
  Flow/ExteriorArea,                      !- Design Flow Rate Calculation Method
  ,                                       !- Design Flow Rate {m3/s}
  ,                                       !- Flow per Space Floor Area {m3/s-m2}
  0.00030226,                             !- Flow per Exterior Surface Area {m3/s-m2}
  ,                                       !- Air Changes per Hour {1/hr}
  ,                                       !- Constant Term Coefficient
  ,                                       !- Temperature Term Coefficient
  ,                                       !- Velocity Term Coefficient
  ;                                       !- Velocity Squared Term Coefficient

OS:Schedule:Ruleset,
  {6a897e35-ded1-410b-8818-210cbd86f97d}, ! Handle
  Office Infil Quarter On,                ! Name
  {b4f5cf3f-deee-4181-ba5d-fce10e474dce}, ! Schedule Type Limits Name
  {dac17628-fb8a-412a-9f0e-d8d8b0909882}, ! Default Day Schedule Name
  {7d848949-5036-4e94-bca2-527ff4e5382f}, ! Summer Design Day Schedule Name
  {ef4cfb29-ff11-429c-aedf-9b952306f436}; ! Winter Design Day Schedule Name

OS:Schedule:Day,
  {dac17628-fb8a-412a-9f0e-d8d8b0909882}, ! Handle
  Office Infil Quarter On Default Schedule, ! Name
  {b4f5cf3f-deee-4181-ba5d-fce10e474dce}, ! Schedule Type Limits Name
  ,                                       ! Interpolate to Timestep
  6,                                      !- Hour 1
  0,                                      !- Minute 1
  1,                                      !- Value Until Time 1
  22,                                     !- Hour 2
  0,                                      !- Minute 2
  0.25,                                   !- Value Until Time 2
  24,                                     !- Hour 3
  0,                                      !- Minute 3
  1;                                      !- Value Until Time 3

OS:Schedule:Day,
  {7d848949-5036-4e94-bca2-527ff4e5382f}, ! Handle
  Office Infil Quarter On Summer Design Day, ! Name
  {b4f5cf3f-deee-4181-ba5d-fce10e474dce}, ! Schedule Type Limits Name
  ,                                       ! Interpolate to Timestep
  6,                                      ! Hour 1
  0,                                      ! Minute 1
  1,                                      ! Value Until Time 1
  22,                                     ! Hour 2
  0,                                      ! Minute 2
  0.25,                                   ! Value Until Time 2
  24,                                     ! Hour 3
  0,                                      ! Minute 3
  1;                                      ! Value Until Time 3

OS:Schedule:Day,
  {ef4cfb29-ff11-429c-aedf-9b952306f436}, ! Handle
  Office Infil Quarter On Winter Design Day, ! Name
  {b4f5cf3f-deee-4181-ba5d-fce10e474dce}, ! Schedule Type Limits Name
  ,                                       ! Interpolate to Timestep
  6,                                      ! Hour 1
  0,                                      ! Minute 1
  1,                                      ! Value Until Time 1
  18,                                     ! Hour 2
  0,                                      ! Minute 2
  0.25,                                   ! Value Until Time 2
  24,                                     ! Hour 3
  0,                                      ! Minute 3
  1;                                      ! Value Until Time 3

OS:Schedule:Rule,
  {d65d7d53-8772-4e7a-bfad-25eb5aa23a74}, ! Handle
  Office Infil Quarter On Rule 1,         ! Name
  {6a897e35-ded1-410b-8818-210cbd86f97d}, ! Schedule Ruleset Name
  0,                                      ! Rule Order
  {5afe20c8-0595-46ee-ad9b-420ba54ffc31}, ! Day Schedule Name
  Yes,                                    ! Apply Sunday
  No,                                     ! Apply Monday
  No,                                     ! Apply Tuesday
  No,                                     ! Apply Wednesday
  No,                                     ! Apply Thursday
  No,                                     ! Apply Friday
  No,                                     ! Apply Saturday
  ,                                       ! Apply Holiday
  DateRange,                              ! Date Specification Type
  1,                                      ! Start Month
  1,                                      ! Start Day
  12,                                     ! End Month
  31;                                     ! End Day

OS:Schedule:Day,
  {5afe20c8-0595-46ee-ad9b-420ba54ffc31}, ! Handle
  Office Infil Quarter On Rule 1 Day Schedule, ! Name
  {b4f5cf3f-deee-4181-ba5d-fce10e474dce}, ! Schedule Type Limits Name
  ,                                       ! Interpolate to Timestep
  24,                                     ! Hour 1
  0,                                      ! Minute 1
  1;                                      ! Value Until Time 1

OS:Schedule:Rule,
  {52696f0b-a80e-40bb-8e2d-43fa39161f8b}, ! Handle
  Office Infil Quarter On Rule 2,         ! Name
  {6a897e35-ded1-410b-8818-210cbd86f97d}, ! Schedule Ruleset Name
  1,                                      ! Rule Order
  {ad32dc76-ad37-4794-8704-6ed6bdc96888}, ! Day Schedule Name
  No,                                     ! Apply Sunday
  No,                                     ! Apply Monday
  No,                                     ! Apply Tuesday
  No,                                     ! Apply Wednesday
  No,                                     ! Apply Thursday
  No,                                     ! Apply Friday
  Yes,                                    ! Apply Saturday
  ,                                       ! Apply Holiday
  DateRange,                              ! Date Specification Type
  1,                                      ! Start Month
  1,                                      ! Start Day
  12,                                     ! End Month
  31;                                     ! End Day

OS:Schedule:Day,
  {ad32dc76-ad37-4794-8704-6ed6bdc96888}, ! Handle
  Office Infil Quarter On Rule 2 Day Schedule, ! Name
  {b4f5cf3f-deee-4181-ba5d-fce10e474dce}, ! Schedule Type Limits Name
  ,                                       ! Interpolate to Timestep
  6,                                      ! Hour 1
  0,                                      ! Minute 1
  1,                                      ! Value Until Time 1
  18,                                     ! Hour 2
  0,                                      ! Minute 2
  0.25,                                   ! Value Until Time 2
  24,                                     ! Hour 3
  0,                                      ! Minute 3
  1;                                      ! Value Until Time 3

OS:ElectricEquipment:Definition,
  {1a4d7582-fb1d-443f-a885-ccd78b362991}, !- Handle
  DOE Ref 2004 - Office - BreakRoom Electric Equipment Definition, !- Name
  Watts/Area,                             !- Design Level Calculation Method
  ,                                       !- Design Level {W}
  60.0626201252403,                       !- Watts per Space Floor Area {W/m2}
  ;                                       !- Watts per Person {W/person}

OS:ElectricEquipment,
  {c77fe4b1-a5c4-4bf7-80f1-045afa88faaf}, !- Handle
  DOE Ref 2004 - Office - BreakRoom Electric Equipment, !- Name
  {1a4d7582-fb1d-443f-a885-ccd78b362991}, !- Electric Equipment Definition Name
  {3c205a59-b2f3-4020-9c98-d07714bd9d71}; !- Space or SpaceType Name

OS:Schedule:Ruleset,
  {364ab6cc-0318-4e1c-8747-19c78bb570cb}, ! Handle
  Office Bldg Equip,                      ! Name
  {b4f5cf3f-deee-4181-ba5d-fce10e474dce}, ! Schedule Type Limits Name
  {38f79031-51b9-4970-8230-45a8d94d6768}, ! Default Day Schedule Name