
OS:Version,
  {c83e842d-9dd5-4ede-8583-3dd7844281cc}, !- Handle
  1.6.0;                                  !- Version Identifier

OS:ClimateZones,
  {00dda828-8d9d-4465-bd4d-0c0c556ea992}, !- Handle
  ,                                       !- Active Institution
  ,                                       !- Active Year
  ASHRAE,                                 !- Climate Zone Institution Name 1
  ANSI/ASHRAE Standard 169,               !- Climate Zone Document Name 1
  2006,                                   !- Climate Zone Document Year 1
  ,                                       !- Climate Zone Value 1
  CEC,                                    !- Climate Zone Institution Name 2
  California Climate Zone Descriptions,   !- Climate Zone Document Name 2
  1995,                                   !- Climate Zone Document Year 2
  ;                                       !- Climate Zone Value 2

OS:LifeCycleCost:Parameters,
  {6a4fbf89-81ad-4d65-b366-afd317fb7f33}, !- Handle
  FEMP,                                   !- Analysis Type
  ,                                       !- Discounting Convention
  ,                                       !- Inflation Approach
  ,                                       !- Real Discount Rate
  ,                                       !- Nominal Discount Rate
  ,                                       !- Inflation
  ,                                       !- Base Date Month
  ,                                       !- Base Date Year
  ,                                       !- Service Date Month
  ,                                       !- Service Date Year
  ,                                       !- Length of Study Period in Years
  ,                                       !- Tax Rate
  ,                                       !- Depreciation Method
  Yes;                                    !- Use NIST Fuel Escalation Rates

OS:YearDescription,
  {6db9d436-efda-4d1c-99cd-5e575aafcf98}; !- Handle

OS:Building,
  {aed50290-79f3-49ec-b232-91325ed1b660}, !- Handle
  Building 1,                             !- Name
  ,                                       !- Building Sector Type
  ,                                       !- North Axis {deg}
  ,                                       !- Nominal Floor to Floor Height {m}
  {79398e3b-4abe-49a6-b01e-5408aa4fb018}, !- Space Type Name
  {324ab181-f97c-47d6-bd1b-3324b3e3b481}, !- Default Construction Set Name
  ;                                       !- Default Schedule Set Name

OS:Facility,
  {57faeb43-443e-4961-8221-fe11336fdc41}; !- Handle

OS:SpaceType,
  {8ed84bc9-d5da-4e34-bc53-5258f9484c56}, !- Handle
  DOE Ref 2004 - Office - BreakRoom,      !- Name
  ,                                       !- Default Construction Set Name
  {9d0b1bd0-4da5-41d2-8a66-4c09810fbf4e}, !- Default Schedule Set Name
  {cba2152c-0a3d-4795-9e7f-cc6198e6d5b3}, !- Group Rendering Name
  {715daa68-f24a-4be2-9996-5cc0f0e045e9}, !- Design Specification Outdoor Air Object Name
  Office,                                 !- Standards Building Type
  BreakRoom;                              !- Standards Space Type

OS:Rendering:Color,
  {cba2152c-0a3d-4795-9e7f-cc6198e6d5b3}, !- Handle
  Rendering Color 1,                      !- Name
  230,                                    !- Rendering Red Value
  157,                                    !- Rendering Green Value
  120;                                    !- Rendering Blue Value

OS:DefaultScheduleSet,
  {9d0b1bd0-4da5-41d2-8a66-4c09810fbf4e}, !- Handle
  DOE Ref 2004 - Office - BreakRoom Schedule Set, !- Name
  ,                                       !- Hours of Operation Schedule Name
  {50d60241-4d90-4b1b-94e2-8cea982a101e}, !- Number of People Schedule Name
  {6114db5e-8548-46c1-96d7-d80ebdfc45c7}, !- People Activity Level Schedule Name
  {d5c7abf4-d4bc-49e6-9304-2c11ed553f20}, !- Lighting Schedule Name
  {4962a8c6-4e41-4744-97ed-2ecbd67ef86a}, !- Electric Equipment Schedule Name
  ,                                       !- Gas Equipment Schedule Name
  ,                                       !- Hot Water Equipment Schedule Name
  {c168f603-c3ea-4525-8a8b-22415ff8446e}, !- Infiltration Schedule Name
  ,                                       !- Steam Equipment Schedule Name
  ;                                       !- Other Equipment Schedule Name

OS:Lights:Definition,
  {bf6b8405-2270-4a6f-9ae4-e65bb4dbfb6f}, !- Handle
  DOE Ref 2004 - Office - BreakRoom Lights Definition, !- Name
  Watts/Area,                             !- Design Level Calculation Method
  ,                                       !- Lighting Level {W}
  12.9166925000517,                       !- Watts per Space Floor Area {W/m2}
  ;                                       !- Watts per Person {W/person}

OS:Lights,
  {bcc46a19-9bd8-4a11-892c-185ec69ebb31}, !- Handle
  DOE Ref 2004 - Office - BreakRoom Lights, !- Name
  {bf6b8405-2270-4a6f-9ae4-e65bb4dbfb6f}, !- Lights Definition Name
  {8ed84bc9-d5da-4e34-bc53-5258f9484c56}; !- Space or SpaceType Name

OS:Schedule:Ruleset,
  {d5c7abf4-d4bc-49e6-9304-2c11ed553f20}, ! Handle
  Office Bldg Light,                      ! Name
  {ca3ad5e0-97e0-4ac5-840c-d5c24f791c66}, ! Schedule Type Limits Name
  {a265952d-a77d-4ce9-9619-6278af37528f}, ! Default Day Schedule Name
  {f48251ba-0669-4725-9c14-e8646736a5df}, ! Summer Design Day Schedule Name
  {372bb857-07ff-4bc4-83bf-081632e63589}; ! Winter Design Day Schedule Name

OS:ScheduleTypeLimits,
  {ca3ad5e0-97e0-4ac5-840c-d5c24f791c66}, ! Handle
  Fraction,                               ! Name
  0,                                      ! Lower Limit Value
  1,                                      ! Upper Limit Value
  CONTINUOUS;                             ! Numeric Type

OS:Schedule:Day,
  {a265952d-a77d-4ce9-9619-6278af37528f}, ! Handle
  Office Bldg Light Default Schedule,     ! Name
  {ca3ad5e0-97e0-4ac5-840c-d5c24f791c66}, ! Schedule Type Limits Name
  ,                                       ! Interpolate to Timestep
  5,                                      !- Hour 1
  0,                                      !- Minute 1
  0.05,                                   !- Value Until Time 1
  7,                                      !- Hour 2
  0,                                      !- Minute 2
  0.1,                                    !- Value Until Time 2
  8,                                      !- Hour 3
  0,                                      !- Minute 3
  0.3,                                    !- Value Until Time 3
  17,                                     !- Hour 4
  0,                                      !- Minute 4
  0.9,                                    !- Value Until Time 4
  18,                                     !- Hour 5
  0,                                      !- Minute 5
  0.7,                                    !- Value Until Time 5
  20,                                     !- Hour 6
  0,                                      !- Minute 6
  0.5,                                    !- Value Until Time 6
  22,                                     !- Hour 7
  0,                                      !- Minute 7
  0.3,                                    !- Value Until Time 7
  23,                                     !- Hour 8
  0,                                      !- Minute 8
  0.1,                                    !- Value Until Time 8
  24,                                     !- Hour 9
  0,                                      !- Minute 9
  0.05;                                   !- Value Until Time 9

OS:Schedule:Day,
  {f48251ba-0669-4725-9c14-e8646736a5df}, ! Handle
  Office Bldg Light Summer Design Day,    ! Name
  {ca3ad5e0-97e0-4ac5-840c-d5c24f791c66}, ! Schedule Type Limits Name
  ,                                       ! Interpolate to Timestep
  24,                                     ! Hour 1
  0,                                      ! Minute 1
  1;                                      ! Value Until Time 1

OS:Schedule:Day,
  {372bb857-07ff-4bc4-83bf-081632e63589}, ! Handle
  Office Bldg Light Winter Design Day,    ! Name
  {ca3ad5e0-97e0-4ac5-840c-d5c24f791c66}, ! Schedule Type Limits Name
  ,                                       ! Interpolate to Timestep
  24,                                     ! Hour 1
  0,                                      ! Minute 1
  0;                                      ! Value Until Time 1

OS:Schedule:Rule,
  {7283fa06-b5bf-4451-9d1b-6b024e926b4e}, ! Handle
  Office Bldg Light Rule 1,               ! Name
  {d5c7abf4-d4bc-49e6-9304-2c11ed553f20}, ! Schedule Ruleset Name
  0,                                      ! Rule Order
  {e4fa9fcb-e054-410b-9b11-ba963fb86208}, ! Day Schedule Name
  Yes,                                    ! Apply Sunday
  No,                                     ! Apply Monday
  No,                                     ! Apply Tuesday
  No,                                     ! Apply Wednesday
  No,                                     ! Apply Thursday
  No,                                     ! Apply Friday
  No,                                     ! Apply Saturday
  ,                                       ! Apply Holiday
  DateRange,                              ! Date Specification Type
  1,                                      ! Start Month
  1,                                      ! Start Day
  12,                                     ! End Month
  31;                                     ! End Day

OS:Schedule:Day,
  {e4fa9fcb-e054-410b-9b11-ba963fb86208}, ! Handle
  Office Bldg Light Rule 1 Day Schedule,  ! Name
  {ca3ad5e0-97e0-4ac5-840c-d5c24f791c66}, ! Schedule Type Limits Name
  ,                                       ! Interpolate to Timestep
  24,                                     ! Hour 1
  0,                                      ! Minute 1
  0.050000000000000003;                   ! Value Until Time 1

OS:Schedule:Rule,
  {c2bc7190-1002-4046-bde3-c381bbd3e617}, ! Handle
  Office Bldg Light Rule 2,               ! Name
  {d5c7abf4-d4bc-49e6-9304-2c11ed553f20}, ! Schedule Ruleset Name
  1,                                      ! Rule Order
  {7b31ccd2-d845-40d2-96e3-d98ca0f52f78}, ! Day Schedule Name
  No,                                     ! Apply Sunday
  No,                                     ! Apply Monday
  No,                                     ! Apply Tuesday
  No,                                     ! Apply Wednesday
  No,                                     ! Apply Thursday
  No,                                     ! Apply Friday
  Yes,                                    ! Apply Saturday
  ,                                       ! Apply Holiday
  DateRange,                              ! Date Specification Type
  1,                                      ! Start Month
  1,                                      ! Start Day
  12,                                     ! End Month
  31;                                     ! End Day

OS:Schedule:Day,
  {7b31ccd2-d845-40d2-96e3-d98ca0f52f78}, ! Handle
  Office Bldg Light Rule 2 Day Schedule,  ! Name
  {ca3ad5e0-97e0-4ac5-840c-d5c24f791c66}, ! Schedule Type Limits Name
  ,                                       ! Interpolate to Timestep
  6,                                      ! Hour 1
  0,                                      ! Minute 1
  0.050000000000000003,                   ! Value Until Time 1
  8,                                      ! Hour 2
  0,                                      ! Minute 2
  0.10000000000000001,                    ! Value Until Time 2
  14,                                     ! Hour 3
  0,                                      ! Minute 3
  0.5,                                    ! Value Until Time 3
  17,                                     ! Hour 4
  0,                                      ! Minute 4
  0.14999999999999999,                    ! Value Until Time 4
  24,                                     ! Hour 5
  0,                                      ! Minute 5
  0.050000000000000003;                   ! Value Until Time 5

OS:DesignSpecification:OutdoorAir,
  {715daa68-f24a-4be2-9996-5cc0f0e045e9}, !- Handle
  DOE Ref 2004 - Office - BreakRoom Ventilation, !- Name
  Sum,                                    !- Outdoor Air Method
  0.007079211648,                         !- Outdoor Air Flow per Person {m3/s-person}
  ,                                       !- Outdoor Air Flow per Floor Area {m3/s-m2}
  ,                                       !- Outdoor Air Flow Rate {m3/s}
  ,                                       !- Outdoor Air Flow Air Changes per Hour {1/hr}
  ;                                       !- Outdoor Air Flow Rate Fraction Schedule Name

OS:People:Definition,
  {5494da8f-02f5-48ac-8743-aa3f2aaf10b4}, !- Handle
  DOE Ref 2004 - Office - BreakRoom People Definition, !- Name
  People/Area,                            !- Number of People Calculation Method
  ,                                       !- Number of People {people}
  0.538195520835486,                      !- People per Space Floor Area {person/m2}
  ,                                       !- Space Floor Area per Person {m2/person}
  0.3;                                    !- Fraction Radiant

OS:People,
  {6ac3ec9d-8b31-4c0d-b990-af6673ec634a}, !- Handle
  DOE Ref 2004 - Office - BreakRoom People, !- Name
  {5494da8f-02f5-48ac-8743-aa3f2aaf10b4}, !- People Definition Name
  {8ed84bc9-d5da-4e34-bc53-5258f9484c56}; !- Space or SpaceType Name

OS:Schedule:Ruleset,
  {50d60241-4d90-4b1b-94e2-8cea982a101e}, ! Handle
  Office Misc Occ,                        ! Name
  {ca3ad5e0-97e0-4ac5-840c-d5c24f791c66}, ! Schedule Type Limits Name
  {bd294834-9211-49c2-829a-b56290d4790e}, ! Default Day Schedule Name
  {009691f8-dd18-4ac4-a8f6-f9aa29e5528e}, ! Summer Design Day Schedule Name
  {e8ea8c94-0246-4111-b1dd-5377d2689bcd}; ! Winter Design Day Schedule Name

OS:Schedule:Day,
  {bd294834-9211-49c2-829a-b56290d4790e}, ! Handle
  Office Bldg Occ Default Schedule 1,     ! Name
  {ca3ad5e0-97e0-4ac5-840c-d5c24f791c66}, ! Schedule Type Limits Name
  ,                                       ! Interpolate to Timestep
  6,                                      !- Hour 1
  0,                                      !- Minute 1
  0,                                      !- Value Until Time 1
  7,                                      !- Hour 2
  0,                                      !- Minute 2
  0.100000001490116,                      !- Value Until Time 2
  8,                                      !- Hour 3
  0,                                      !- Minute 3
  0.200000002980232,                      !- Value Until Time 3
  20,                                     !- Hour 4
  0,                                      !- Minute 4
  0.400000005960464,                      !- Value Until Time 4
  22,                                     !- Hour 5
  0,                                      !- Minute 5
  0.100000001490116,                      !- Value Until Time 5
  24,                                     !- Hour 6
  0,                                      !- Minute 6
  0.0500000007450581;                     !- Value Until Time 6

OS:Schedule:Day,
  {009691f8-dd18-4ac4-a8f6-f9aa29e5528e}, ! Handle
  Office Bldg Occ Summer Design Day 1,    ! Name
  {ca3ad5e0-97e0-4ac5-840c-d5c24f791c66}, ! Schedule Type Limits Name
  ,                                       ! Interpolate to Timestep
  6,                                      ! Hour 1
  0,                                      ! Minute 1
  0,                                      ! Value Until Time 1
  22,                                     ! Hour 2
  0,                                      ! Minute 2
  1,                                      ! Value Until Time 2
  24,                                     ! Hour 3
  0,                                      ! Minute 3
  0.050000000000000003;                   ! Value Until Time 3

OS:Schedule:Day,
  {e8ea8c94-0246-4111-b1dd-5377d2689bcd}, ! Handle
  Office Bldg Occ Winter Design Day 1,    ! Name
  {ca3ad5e0-97e0-4ac5-840c-d5c24f791c66}, ! Schedule Type Limits Name
  ,                                       ! Interpolate to Timestep
  24,                                     ! Hour 1
  0,                                      ! Minute 1
  0;                                      ! Value Until Time 1

OS:Schedule:Rule,
  {f12c8f09-575f-4eb5-bd9f-4d3b8a8d53be}, ! Handle
  Office Misc Occ Rule 1,                 ! Name
  {50d60241-4d90-4b1b-94e2-8cea982a101e}, ! Schedule Ruleset Name
  0,                                      ! Rule Order
  {5913f4a0-e58b-452b-99ac-131ddc7d113c}, ! Day Schedule Name
  Yes,                                    ! Apply Sunday
  No,                                     ! Apply Monday
  No,                                     ! Apply Tuesday
  No,                                     ! Apply Wednesday
  No,                                     ! Apply Thursday
  No,                                     ! Apply Friday
  No,                                     ! Apply Saturday
  ,                                       ! Apply Holiday
  DateRange,                              ! Date Specification Type
  1,                                      ! Start Month
  1,                                      ! Start Day
  12,                                     ! End Month
  31;                                     ! End Day

OS:Schedule:Day,
  {5913f4a0-e58b-452b-99ac-131ddc7d113c}, ! Handle
  Office Bldg Occ Rule 1 Day Schedule 1,  ! Name
  {ca3ad5e0-97e0-4ac5-840c-d5c24f791c66}, ! Schedule Type Limits Name
  ,                                       ! Interpolate to Timestep
  24,                                     ! Hour 1
  0,                                      ! Minute 1
  0;                                      ! Value Until Time 1

OS:Schedule:Rule,
  {f6629918-3b67-4cb4-b936-8a81b4bf2094}, ! Handle
  Office Misc Occ Rule 2,                 ! Name
  {50d60241-4d90-4b1b-94e2-8cea982a101e}, ! Schedule Ruleset Name
  1,                                      ! Rule Order
  {fe323c5c-da82-4697-939d-4c4e8c8ad0ff}, ! Day Schedule Name
  No,                                     ! Apply Sunday
  No,                                     ! Apply Monday
  No,                                     ! Apply Tuesday
  No,                                     ! Apply Wednesday
  No,                                     ! Apply Thursday
  No,                                     ! Apply Friday
  Yes,                                    ! Apply Saturday
  ,                                       ! Apply Holiday
  DateRange,                              ! Date Specification Type
  1,                                      ! Start Month
  1,                                      ! Start Day
  12,                                     ! End Month
  31;                                     ! End Day

OS:Schedule:Day,
  {fe323c5c-da82-4697-939d-4c4e8c8ad0ff}, ! Handle
  Office Bldg Occ Rule 2 Day Schedule 1,  ! Name
  {ca3ad5e0-97e0-4ac5-840c-d5c24f791c66}, ! Schedule Type Limits Name
  ,                                       ! Interpolate to Timestep
  6,                                      !- Hour 1
  0,                                      !- Minute 1
  0,                                      !- Value Until Time 1
  8,                                      !- Hour 2
  0,                                      !- Minute 2
  0.100000001490116,                      !- Value Until Time 2
  14,                                     !- Hour 3
  0,                                      !- Minute 3
  0.25,                                   !- Value Until Time 3
  17,                                     !- Hour 4
  0,                                      !- Minute 4
  0.100000001490116,                      !- Value Until Time 4
  24,                                     !- Hour 5
  0,                                      !- Minute 5
  0;                                      !- Value Until Time 5

OS:Schedule:Ruleset,
  {6114db5e-8548-46c1-96d7-d80ebdfc45c7}, ! Handle
  Office Activity,                        ! Name
  {6bacc072-873a-48af-9550-44127b6ead7f}, ! Schedule Type Limits Name
  {d8fd12eb-03f3-4985-a7a7-0730093e1c19}, ! Default Day Schedule Name
  {bb02db74-f9e7-49d1-a276-9fae9cbaf058}, ! Summer Design Day Schedule Name
  {b34f13bf-a684-48ec-8e4f-372c8282a86f}; ! Winter Design Day Schedule Name

OS:ScheduleTypeLimits,
  {6bacc072-873a-48af-9550-44127b6ead7f}, !- Handle
  ActivityLevel,                          !- Name
  0,                                      !- Lower Limit Value {BasedOnField A4}
  ,                                       !- Upper Limit Value {BasedOnField A4}
  Continuous,                             !- Numeric Type
  ActivityLevel;                          !- Unit Type

OS:Schedule:Day,
  {d8fd12eb-03f3-4985-a7a7-0730093e1c19}, ! Handle
  Office Activity Default Schedule,       ! Name
  {6bacc072-873a-48af-9550-44127b6ead7f}, ! Schedule Type Limits Name
  ,                                       ! Interpolate to Timestep
  24,                                     !- Hour 1
  0,                                      !- Minute 1
  132;                                    !- Value Until Time 1

OS:Schedule:Day,
  {bb02db74-f9e7-49d1-a276-9fae9cbaf058}, ! Handle
  Office Activity Summer Design Day,      ! Name
  {6bacc072-873a-48af-9550-44127b6ead7f}, ! Schedule Type Limits Name
  ,                                       ! Interpolate to Timestep
  24,                                     !- Hour 1
  0,                                      !- Minute 1
  132;                                    !- Value Until Time 1

OS:Schedule:Day,
  {b34f13bf-a684-48ec-8e4f-372c8282a86f}, ! Handle
  Office Activity Winter Design Day,      ! Name
  {6bacc072-873a-48af-9550-44127b6ead7f}, ! Schedule Type Limits Name
  ,                                       ! Interpolate to Timestep
  24,                                     !- Hour 1
  0,                                      !- Minute 1
  132;                                    !- Value Until Time 1

OS:SpaceInfiltration:DesignFlowRate,
  {7ac2db8d-1103-459c-b05b-2819e9a6b333}, !- Handle
  DOE Ref 2004 - Office - BreakRoom Infiltration, !- Name
  {8ed84bc9-d5da-4e34-bc53-5258f9484c56}, !- Space or SpaceType Name
  ,                                       !- Schedule Name
  Flow/ExteriorArea,                      !- Design Flow Rate Calculation Method
  ,                                       !- Design Flow Rate {m3/s}
  ,                                       !- Flow per Space Floor Area {m3/s-m2}
  0.00030226,                             !- Flow per Exterior Surface Area {m3/s-m2}
  ,                                       !- Air Changes per Hour {1/hr}
  ,                                       !- Constant Term Coefficient
  ,                                       !- Temperature Term Coefficient
  ,                                       !- Velocity Term Coefficient
  ;                                       !- Velocity Squared Term Coefficient

OS:Schedule:Ruleset,
  {c168f603-c3ea-4525-8a8b-22415ff8446e}, ! Handle
  Office Infil Quarter On,                ! Name
  {ca3ad5e0-97e0-4ac5-840c-d5c24f791c66}, ! Schedule Type Limits Name
  {8fc0e92e-3151-45e0-90bb-6d80ace85f12}, ! Default Day Schedule Name
  {91e8c26b-93c5-4612-8dd4-c8decd69e76a}, ! Summer Design Day Schedule Name
  {ae3ff1a1-0ce7-409b-9b7b-13aa67628186}; ! Winter Design Day Schedule Name

OS:Schedule:Day,
  {8fc0e92e-3151-45e0-90bb-6d80ace85f12}, ! Handle
  Office Infil Quarter On Default Schedule, ! Name
  {ca3ad5e0-97e0-4ac5-840c-d5c24f791c66}, ! Schedule Type Limits Name
  ,                                       ! Interpolate to Timestep
  6,                                      !- Hour 1
  0,                                      !- Minute 1
  1,                                      !- Value Until Time 1
  22,                                     !- Hour 2
  0,                                      !- Minute 2
  0.25,                                   !- Value Until Time 2
  24,                                     !- Hour 3
  0,                                      !- Minute 3
  1;                                      !- Value Until Time 3

OS:Schedule:Day,
  {91e8c26b-93c5-4612-8dd4-c8decd69e76a}, ! Handle
  Office Infil Quarter On Summer Design Day, ! Name
  {ca3ad5e0-97e0-4ac5-840c-d5c24f791c66}, ! Schedule Type Limits Name
  ,                                       ! Interpolate to Timestep
  6,                                      ! Hour 1
  0,                                      ! Minute 1
  1,                                      ! Value Until Time 1
  22,                                     ! Hour 2
  0,                                      ! Minute 2
  0.25,                                   ! Value Until Time 2
  24,                                     ! Hour 3
  0,                                      ! Minute 3
  1;                                      ! Value Until Time 3

OS:Schedule:Day,
  {ae3ff1a1-0ce7-409b-9b7b-13aa67628186}, ! Handle
  Office Infil Quarter On Winter Design Day, ! Name
  {ca3ad5e0-97e0-4ac5-840c-d5c24f791c66}, ! Schedule Type Limits Name
  ,                                       ! Interpolate to Timestep
  6,                                      ! Hour 1
  0,                                      ! Minute 1
  1,                                      ! Value Until Time 1
  18,                                     ! Hour 2
  0,                                      ! Minute 2
  0.25,                                   ! Value Until Time 2
  24,                                     ! Hour 3
  0,                                      ! Minute 3
  1;                                      ! Value Until Time 3

OS:Schedule:Rule,
  {bd79510a-ec20-4b46-bee9-e58f31f900c4}, ! Handle
  Office Infil Quarter On Rule 1,         ! Name
  {c168f603-c3ea-4525-8a8b-22415ff8446e}, ! Schedule Ruleset Name
  0,                                      ! Rule Order
  {322b448b-2fe3-400e-9ffb-3dc9e46fe4cb}, ! Day Schedule Name
  Yes,                                    ! Apply Sunday
  No,                                     ! Apply Monday
  No,                                     ! Apply Tuesday
  No,                                     ! Apply Wednesday
  No,                                     ! Apply Thursday
  No,                                     ! Apply Friday
  No,                                     ! Apply Saturday
  ,                                       ! Apply Holiday
  DateRange,                              ! Date Specification Type
  1,                                      ! Start Month
  1,                                      ! Start Day
  12,                                     ! End Month
  31;                                     ! End Day

OS:Schedule:Day,
  {322b448b-2fe3-400e-9ffb-3dc9e46fe4cb}, ! Handle
  Office Infil Quarter On Rule 1 Day Schedule, ! Name
  {ca3ad5e0-97e0-4ac5-840c-d5c24f791c66}, ! Schedule Type Limits Name
  ,                                       ! Interpolate to Timestep
  24,                                     ! Hour 1
  0,                                      ! Minute 1
  1;                                      ! Value Until Time 1

OS:Schedule:Rule,
  {d191ac5f-65be-45a6-a1e8-69081473e563}, ! Handle
  Office Infil Quarter On Rule 2,         ! Name
  {c168f603-c3ea-4525-8a8b-22415ff8446e}, ! Schedule Ruleset Name
  1,                                      ! Rule Order
  {8a1a871e-653e-463c-a888-2a459bf626a8}, ! Day Schedule Name
  No,                                     ! Apply Sunday
  No,                                     ! Apply Monday
  No,                                     ! Apply Tuesday
  No,                                     ! Apply Wednesday
  No,                                     ! Apply Thursday
  No,                                     ! Apply Friday
  Yes,                                    ! Apply Saturday
  ,                                       ! Apply Holiday
  DateRange,                              ! Date Specification Type
  1,                                      ! Start Month
  1,                                      ! Start Day
  12,                                     ! End Month
  31;                                     ! End Day

OS:Schedule:Day,
  {8a1a871e-653e-463c-a888-2a459bf626a8}, ! Handle
  Office Infil Quarter On Rule 2 Day Schedule, ! Name
  {ca3ad5e0-97e0-4ac5-840c-d5c24f791c66}, ! Schedule Type Limits Name
  ,                                       ! Interpolate to Timestep
  6,                                      ! Hour 1
  0,                                      ! Minute 1
  1,                                      ! Value Until Time 1
  18,                                     ! Hour 2
  0,                                      ! Minute 2
  0.25,                                   ! Value Until Time 2
  24,                                     ! Hour 3
  0,                                      ! Minute 3
  1;                                      ! Value Until Time 3

OS:ElectricEquipment:Definition,
  {e51008c3-6b06-40f0-8445-d6cb4ab222ef}, !- Handle
  DOE Ref 2004 - Office - BreakRoom Electric Equipment Definition, !- Name
  Watts/Area,                             !- Design Level Calculation Method
  ,                                       !- Design Level {W}
  60.0626201252403,                       !- Watts per Space Floor Area {W/m2}
  ;                                       !- Watts per Person {W/person}

OS:ElectricEquipment,
  {dd8a163b-81dd-4024-be39-f6fcab73288a}, !- Handle
  DOE Ref 2004 - Office - BreakRoom Electric Equipment, !- Name
  {e51008c3-6b06-40f0-8445-d6cb4ab222ef}, !- Electric Equipment Definition Name
  {8ed84bc9-d5da-4e34-bc53-5258f9484c56}; !- Space or SpaceType Name

OS:Schedule:Ruleset,
  {4962a8c6-4e41-4744-97ed-2ecbd67ef86a}, ! Handle
  Office Bldg Equip,                      ! Name
  {ca3ad5e0-97e0-4ac5-840c-d5c24f791c66}, ! Schedule Type Limits Name
  {98bf1e1d-779e-4b5e-8e7b-3f52bae47a59}, ! Default Day Schedule Name