
OS:Version,
  {c83e842d-9dd5-4ede-8583-3dd7844281cc}, !- Handle
  1.6.0;                                  !- Version Identifier

OS:ClimateZones,
  {00dda828-8d9d-4465-bd4d-0c0c556ea992}, !- Handle
  ,                                       !- Active Institution
  ,                                       !- Active Year
  ASHRAE,                                 !- Climate Zone Institution Name 1
  ANSI/ASHRAE Standard 169,               !- Climate Zone Document Name 1
  2006,                                   !- Climate Zone Document Year 1
  ,                                       !- Climate Zone Value 1
  CEC,                                    !- Climate Zone Institution Name 2
  California Climate Zone Descriptions,   !- Climate Zone Document Name 2
  1995,                                   !- Climate Zone Document Year 2
  ;                                       !- Climate Zone Value 2

OS:LifeCycleCost:Parameters,
  {6a4fbf89-81ad-4d65-b366-afd317fb7f33}, !- Handle
  FEMP,                                   !- Analysis Type
  ,                                       !- Discounting Convention
  ,                                       !- Inflation Approach
  ,                                       !- Real Discount Rate
  ,                                       !- Nominal Discount Rate
  ,                                       !- Inflation
  ,                                       !- Base Date Month
  ,                                       !- Base Date Year
  ,                                       !- Service Date Month
  ,                                       !- Service Date Year
  ,                                       !- Length of Study Period in Years
  ,                                       !- Tax Rate
  ,                                       !- Depreciation Method
  Yes;                                    !- Use NIST Fuel Escalation Rates

OS:YearDescription,
  {6db9d436-efda-4d1c-99cd-5e575aafcf98}; !- Handle

OS:Building,
  {aed50290-79f3-49ec-b232-91325ed1b660}, !- Handle
  Building 1,                             !- Name
  ,                                       !- Building Sector Type
  ,                                       !- North Axis {deg}
  ,                                       !- Nominal Floor to Floor Height {m}
  {3c20717c-3ffe-458d-a138-897799efb5ce}, !- Space Type Name
  {7becef30-e65d-4480-bf01-4b2687845656}, !- Default Construction Set Name
  ;                                       !- Default Schedule Set Name

OS:Facility,
  {57faeb43-443e-4961-8221-fe11336fdc41}; !- Handle

OS:SpaceType,
  {0a758f79-21c0-4275-aa66-fbc07d6913d5}, !- Handle
  DOE Ref 2004 - Office - BreakRoom,      !- Name
  ,                                       !- Default Construction Set Name
  {17fd3130-e785-4d8f-83d0-23af4fa03c9c}, !- Default Schedule Set Name
  {cd5f1c0b-04ea-4108-be0d-216bff4d8425}, !- Group Rendering Name
  {0a3cf956-4e1b-4bb9-8ba1-cda4dd5eb02e}, !- Design Specification Outdoor Air Object Name
  Office,                                 !- Standards Building Type
  BreakRoom;                              !- Standards Space Type

OS:Rendering:Color,
  {cd5f1c0b-04ea-4108-be0d-216bff4d8425}, !- Handle
  Rendering Color 1,                      !- Name
  230,                                    !- Rendering Red Value
  157,                                    !- Rendering Green Value
  120;                                    !- Rendering Blue Value

OS:DefaultScheduleSet,
  {17fd3130-e785-4d8f-83d0-23af4fa03c9c}, !- Handle
  DOE Ref 2004 - Office - BreakRoom Schedule Set, !- Name
  ,                                       !- Hours of Operation Schedule Name
  {d85b9c93-e087-4199-88cf-f2de95eff4ee}, !- Number of People Schedule Name
  {8ae06c8d-f6de-41ed-91f4-047f1b32f2b7}, !- People Activity Level Schedule Name
  {8de064e6-24ce-4fd0-acc4-ce74ad338bb9}, !- Lighting Schedule Name
  {09401448-bd3e-44e4-b49c-38e89f8390ae}, !- Electric Equipment Schedule Name
  ,                                       !- Gas Equipment Schedule Name
  ,                                       !- Hot Water Equipment Schedule Name
  {9d3d0cf1-cc98-4b05-b281-aa9b569cb846}, !- Infiltration Schedule Name
  ,                                       !- Steam Equipment Schedule Name
  ;                                       !- Other Equipment Schedule Name

OS:Lights:Definition,
  {04910cac-282a-4f39-bb0b-db008231e935}, !- Handle
  DOE Ref 2004 - Office - BreakRoom Lights Definition, !- Name
  Watts/Area,                             !- Design Level Calculation Method
  ,                                       !- Lighting Level {W}
  12.9166925000517,                       !- Watts per Space Floor Area {W/m2}
  ;                                       !- Watts per Person {W/person}

OS:Lights,
  {3bbeee15-c07e-4236-98b2-bd046d584cb6}, !- Handle
  DOE Ref 2004 - Office - BreakRoom Lights, !- Name
  {04910cac-282a-4f39-bb0b-db008231e935}, !- Lights Definition Name
  {0a758f79-21c0-4275-aa66-fbc07d6913d5}; !- Space or SpaceType Name

OS:Schedule:Ruleset,
  {8de064e6-24ce-4fd0-acc4-ce74ad338bb9}, ! Handle
  Office Bldg Light,                      ! Name
  {2dc6e39e-1839-48be-933a-bbc41ca7ae5e}, ! Schedule Type Limits Name
  {b05ca910-d5d4-4bf3-93ef-319ccd4a43b6}, ! Default Day Schedule Name
  {2249dae7-b419-4ae6-a369-2ec48f71603e}, ! Summer Design Day Schedule Name
  {620d06a1-435e-448b-9ccd-136bf3c11536}; ! Winter Design Day Schedule Name

OS:ScheduleTypeLimits,
  {2dc6e39e-1839-48be-933a-bbc41ca7ae5e}, ! Handle
  Fraction,                               ! Name
  0,                                      ! Lower Limit Value
  1,                                      ! Upper Limit Value
  CONTINUOUS;                             ! Numeric Type

OS:Schedule:Day,
  {b05ca910-d5d4-4bf3-93ef-319ccd4a43b6}, ! Handle
  Office Bldg Light Default Schedule,     ! Name
  {2dc6e39e-1839-48be-933a-bbc41ca7ae5e}, ! Schedule Type Limits Name
  ,                                       ! Interpolate to Timestep
  5,                                      !- Hour 1
  0,                                      !- Minute 1
  0.05,                                   !- Value Until Time 1
  7,                                      !- Hour 2
  0,                                      !- Minute 2
  0.1,                                    !- Value Until Time 2
  8,                                      !- Hour 3
  0,                                      !- Minute 3
  0.3,                                    !- Value Until Time 3
  17,                                     !- Hour 4
  0,                                      !- Minute 4
  0.9,                                    !- Value Until Time 4
  18,                                     !- Hour 5
  0,                                      !- Minute 5
  0.7,                                    !- Value Until Time 5
  20,                                     !- Hour 6
  0,                                      !- Minute 6
  0.5,                                    !- Value Until Time 6
  22,                                     !- Hour 7
  0,                                      !- Minute 7
  0.3,                                    !- Value Until Time 7
  23,                                     !- Hour 8
  0,                                      !- Minute 8
  0.1,                                    !- Value Until Time 8
  24,                                     !- Hour 9
  0,                                      !- Minute 9
  0.05;                                   !- Value Until Time 9

OS:Schedule:Day,
  {2249dae7-b419-4ae6-a369-2ec48f71603e}, ! Handle
  Office Bldg Light Summer Design Day,    ! Name
  {2dc6e39e-1839-48be-933a-bbc41ca7ae5e}, ! Schedule Type Limits Name
  ,                                       ! Interpolate to Timestep
  24,                                     ! Hour 1
  0,                                      ! Minute 1
  1;                                      ! Value Until Time 1

OS:Schedule:Day,
  {620d06a1-435e-448b-9ccd-136bf3c11536}, ! Handle
  Office Bldg Light Winter Design Day,    ! Name
  {2dc6e39e-1839-48be-933a-bbc41ca7ae5e}, ! Schedule Type Limits Name
  ,                                       ! Interpolate to Timestep
  24,                                     ! Hour 1
  0,                                      ! Minute 1
  0;                                      ! Value Until Time 1

OS:Schedule:Rule,
  {64cfaf7a-3fe9-4194-bf6e-2ef4de940876}, ! Handle
  Office Bldg Light Rule 1,               ! Name
  {8de064e6-24ce-4fd0-acc4-ce74ad338bb9}, ! Schedule Ruleset Name
  0,                                      ! Rule Order
  {5d614a4b-a25b-4b90-8914-e0debd19a54f}, ! Day Schedule Name
  Yes,                                    ! Apply Sunday
  No,                                     ! Apply Monday
  No,                                     ! Apply Tuesday
  No,                                     ! Apply Wednesday
  No,                                     ! Apply Thursday
  No,                                     ! Apply Friday
  No,                                     ! Apply Saturday
  ,                                       ! Apply Holiday
  DateRange,                              ! Date Specification Type
  1,                                      ! Start Month
  1,                                      ! Start Day
  12,                                     ! End Month
  31;                                     ! End Day

OS:Schedule:Day,
  {5d614a4b-a25b-4b90-8914-e0debd19a54f}, ! Handle
  Office Bldg Light Rule 1 Day Schedule,  ! Name
  {2dc6e39e-1839-48be-933a-bbc41ca7ae5e}, ! Schedule Type Limits Name
  ,                                       ! Interpolate to Timestep
  24,                                     ! Hour 1
  0,                                      ! Minute 1
  0.050000000000000003;                   ! Value Until Time 1

OS:Schedule:Rule,
  {34b94563-0390-4884-8d5a-e9b8336d911d}, ! Handle
  Office Bldg Light Rule 2,               ! Name
  {8de064e6-24ce-4fd0-acc4-ce74ad338bb9}, ! Schedule Ruleset Name
  1,                                      ! Rule Order
  {363e8303-c04a-4a75-a62e-687b18a535a3}, ! Day Schedule Name
  No,                                     ! Apply Sunday
  No,                                     ! Apply Monday
  No,                                     ! Apply Tuesday
  No,                                     ! Apply Wednesday
  No,                                     ! Apply Thursday
  No,                                     ! Apply Friday
  Yes,                                    ! Apply Saturday
  ,                                       ! Apply Holiday
  DateRange,                              ! Date Specification Type
  1,                                      ! Start Month
  1,                                      ! Start Day
  12,                                     ! End Month
  31;                                     ! End Day

OS:Schedule:Day,
  {363e8303-c04a-4a75-a62e-687b18a535a3}, ! Handle
  Office Bldg Light Rule 2 Day Schedule,  ! Name
  {2dc6e39e-1839-48be-933a-bbc41ca7ae5e}, ! Schedule Type Limits Name
  ,                                       ! Interpolate to Timestep
  6,                                      ! Hour 1
  0,                                      ! Minute 1
  0.050000000000000003,                   ! Value Until Time 1
  8,                                      ! Hour 2
  0,                                      ! Minute 2
  0.10000000000000001,                    ! Value Until Time 2
  14,                                     ! Hour 3
  0,                                      ! Minute 3
  0.5,                                    ! Value Until Time 3
  17,                                     ! Hour 4
  0,                                      ! Minute 4
  0.14999999999999999,                    ! Value Until Time 4
  24,                                     ! Hour 5
  0,                                      ! Minute 5
  0.050000000000000003;                   ! Value Until Time 5

OS:DesignSpecification:OutdoorAir,
  {0a3cf956-4e1b-4bb9-8ba1-cda4dd5eb02e}, !- Handle
  DOE Ref 2004 - Office - BreakRoom Ventilation, !- Name
  Sum,                                    !- Outdoor Air Method
  0.007079211648,                         !- Outdoor Air Flow per Person {m3/s-person}
  ,                                       !- Outdoor Air Flow per Floor Area {m3/s-m2}
  ,                                       !- Outdoor Air Flow Rate {m3/s}
  ,                                       !- Outdoor Air Flow Air Changes per Hour {1/hr}
  ;                                       !- Outdoor Air Flow Rate Fraction Schedule Name

OS:People:Definition,
  {50fb4728-313c-474d-bfdd-a30b0084e7b1}, !- Handle
  DOE Ref 2004 - Office - BreakRoom People Definition, !- Name
  People/Area,                            !- Number of People Calculation Method
  ,                                       !- Number of People {people}
  0.538195520835486,                      !- People per Space Floor Area {person/m2}
  ,                                       !- Space Floor Area per Person {m2/person}
  0.3;                                    !- Fraction Radiant

OS:People,
  {c5219dc1-052f-4bf4-809d-45686f346f59}, !- Handle
  DOE Ref 2004 - Office - BreakRoom People, !- Name
  {50fb4728-313c-474d-bfdd-a30b0084e7b1}, !- People Definition Name
  {0a758f79-21c0-4275-aa66-fbc07d6913d5}; !- Space or SpaceType Name

OS:Schedule:Ruleset,
  {d85b9c93-e087-4199-88cf-f2de95eff4ee}, ! Handle
  Office Misc Occ,                        ! Name
  {2dc6e39e-1839-48be-933a-bbc41ca7ae5e}, ! Schedule Type Limits Name
  {415fd9cc-d58b-4e9d-9dd5-aa0346016ffb}, ! Default Day Schedule Name
  {298e303e-b0df-4c53-b368-575182bb22a5}, ! Summer Design Day Schedule Name
  {b3a48c4c-4e2c-40a3-a745-49a3b843ac19}; ! Winter Design Day Schedule Name

OS:Schedule:Day,
  {415fd9cc-d58b-4e9d-9dd5-aa0346016ffb}, ! Handle
  Office Bldg Occ Default Schedule 1,     ! Name
  {2dc6e39e-1839-48be-933a-bbc41ca7ae5e}, ! Schedule Type Limits Name
  ,                                       ! Interpolate to Timestep
  6,                                      !- Hour 1
  0,                                      !- Minute 1
  0,                                      !- Value Until Time 1
  7,                                      !- Hour 2
  0,                                      !- Minute 2
  0.100000001490116,                      !- Value Until Time 2
  8,                                      !- Hour 3
  0,                                      !- Minute 3
  0.200000002980232,                      !- Value Until Time 3
  20,                                     !- Hour 4
  0,                                      !- Minute 4
  0.400000005960464,                      !- Value Until Time 4
  22,                                     !- Hour 5
  0,                                      !- Minute 5
  0.100000001490116,                      !- Value Until Time 5
  24,                                     !- Hour 6
  0,                                      !- Minute 6
  0.0500000007450581;                     !- Value Until Time 6

OS:Schedule:Day,
  {298e303e-b0df-4c53-b368-575182bb22a5}, ! Handle
  Office Bldg Occ Summer Design Day 1,    ! Name
  {2dc6e39e-1839-48be-933a-bbc41ca7ae5e}, ! Schedule Type Limits Name
  ,                                       ! Interpolate to Timestep
  6,                                      ! Hour 1
  0,                                      ! Minute 1
  0,                                      ! Value Until Time 1
  22,                                     ! Hour 2
  0,                                      ! Minute 2
  1,                                      ! Value Until Time 2
  24,                                     ! Hour 3
  0,                                      ! Minute 3
  0.050000000000000003;                   ! Value Until Time 3

OS:Schedule:Day,
  {b3a48c4c-4e2c-40a3-a745-49a3b843ac19}, ! Handle
  Office Bldg Occ Winter Design Day 1,    ! Name
  {2dc6e39e-1839-48be-933a-bbc41ca7ae5e}, ! Schedule Type Limits Name
  ,                                       ! Interpolate to Timestep
  24,                                     ! Hour 1
  0,                                      ! Minute 1
  0;                                      ! Value Until Time 1

OS:Schedule:Rule,
  {2e35c477-cf00-4459-8823-7cda86919be1}, ! Handle
  Office Misc Occ Rule 1,                 ! Name
  {d85b9c93-e087-4199-88cf-f2de95eff4ee}, ! Schedule Ruleset Name
  0,                                      ! Rule Order
  {a364a08a-e9ad-44d3-b252-4d24809f1c6d}, ! Day Schedule Name
  Yes,                                    ! Apply Sunday
  No,                                     ! Apply Monday
  No,                                     ! Apply Tuesday
  No,                                     ! Apply Wednesday
  No,                                     ! Apply Thursday
  No,                                     ! Apply Friday
  No,                                     ! Apply Saturday
  ,                                       ! Apply Holiday
  DateRange,                              ! Date Specification Type
  1,                                      ! Start Month
  1,                                      ! Start Day
  12,                                     ! End Month
  31;                                     ! End Day

OS:Schedule:Day,
  {a364a08a-e9ad-44d3-b252-4d24809f1c6d}, ! Handle
  Office Bldg Occ Rule 1 Day Schedule 1,  ! Name
  {2dc6e39e-1839-48be-933a-bbc41ca7ae5e}, ! Schedule Type Limits Name
  ,                                       ! Interpolate to Timestep
  24,                                     ! Hour 1
  0,                                      ! Minute 1
  0;                                      ! Value Until Time 1

OS:Schedule:Rule,
  {714ce28b-92bd-4f43-a1c6-1b96ff3453e5}, ! Handle
  Office Misc Occ Rule 2,                 ! Name
  {d85b9c93-e087-4199-88cf-f2de95eff4ee}, ! Schedule Ruleset Name
  1,                                      ! Rule Order
  {25e82496-1674-4a94-98da-1897cb0c09f4}, ! Day Schedule Name
  No,                                     ! Apply Sunday
  No,                                     ! Apply Monday
  No,                                     ! Apply Tuesday
  No,                                     ! Apply Wednesday
  No,                                     ! Apply Thursday
  No,                                     ! Apply Friday
  Yes,                                    ! Apply Saturday
  ,                                       ! Apply Holiday
  DateRange,                              ! Date Specification Type
  1,                                      ! Start Month
  1,                                      ! Start Day
  12,                                     ! End Month
  31;                                     ! End Day

OS:Schedule:Day,
  {25e82496-1674-4a94-98da-1897cb0c09f4}, ! Handle
  Office Bldg Occ Rule 2 Day Schedule 1,  ! Name
  {2dc6e39e-1839-48be-933a-bbc41ca7ae5e}, ! Schedule Type Limits Name
  ,                                       ! Interpolate to Timestep
  6,                                      !- Hour 1
  0,                                      !- Minute 1
  0,                                      !- Value Until Time 1
  8,                                      !- Hour 2
  0,                                      !- Minute 2
  0.100000001490116,                      !- Value Until Time 2
  14,                                     !- Hour 3
  0,                                      !- Minute 3
  0.25,                                   !- Value Until Time 3
  17,                                     !- Hour 4
  0,                                      !- Minute 4
  0.100000001490116,                      !- Value Until Time 4
  24,                                     !- Hour 5
  0,                                      !- Minute 5
  0;                                      !- Value Until Time 5

OS:Schedule:Ruleset,
  {8ae06c8d-f6de-41ed-91f4-047f1b32f2b7}, ! Handle
  Office Activity,                        ! Name
  {0745b2bb-e138-4b55-acf8-b5535c8560e2}, ! Schedule Type Limits Name
  {2196ab5c-cb3b-41e5-86f8-db714d27e087}, ! Default Day Schedule Name
  {8fc29e8a-0aa3-46fc-bf05-94a9a1f7c600}, ! Summer Design Day Schedule Name
  {148d6388-e6a9-4de5-b698-8cc7864b812c}; ! Winter Design Day Schedule Name

OS:ScheduleTypeLimits,
  {0745b2bb-e138-4b55-acf8-b5535c8560e2}, !- Handle
  ActivityLevel,                          !- Name
  0,                                      !- Lower Limit Value {BasedOnField A4}
  ,                                       !- Upper Limit Value {BasedOnField A4}
  Continuous,                             !- Numeric Type
  ActivityLevel;                          !- Unit Type

OS:Schedule:Day,
  {2196ab5c-cb3b-41e5-86f8-db714d27e087}, ! Handle
  Office Activity Default Schedule,       ! Name
  {0745b2bb-e138-4b55-acf8-b5535c8560e2}, ! Schedule Type Limits Name
  ,                                       ! Interpolate to Timestep
  24,                                     !- Hour 1
  0,                                      !- Minute 1
  132;                                    !- Value Until Time 1

OS:Schedule:Day,
  {8fc29e8a-0aa3-46fc-bf05-94a9a1f7c600}, ! Handle
  Office Activity Summer Design Day,      ! Name
  {0745b2bb-e138-4b55-acf8-b5535c8560e2}, ! Schedule Type Limits Name
  ,                                       ! Interpolate to Timestep
  24,                                     !- Hour 1
  0,                                      !- Minute 1
  132;                                    !- Value Until Time 1

OS:Schedule:Day,
  {148d6388-e6a9-4de5-b698-8cc7864b812c}, ! Handle
  Office Activity Winter Design Day,      ! Name
  {0745b2bb-e138-4b55-acf8-b5535c8560e2}, ! Schedule Type Limits Name
  ,                                       ! Interpolate to Timestep
  24,                                     !- Hour 1
  0,                                      !- Minute 1
  132;                                    !- Value Until Time 1

OS:SpaceInfiltration:DesignFlowRate,
  {70bf1d39-b9e6-4976-9f52-2574689671d1}, !- Handle
  DOE Ref 2004 - Office - BreakRoom Infiltration, !- Name
  {0a758f79-21c0-4275-aa66-fbc07d6913d5}, !- Space or SpaceType Name
  ,                                       !- Schedule Name
  Flow/ExteriorArea,                      !- Design Flow Rate Calculation Method
  ,                                       !- Design Flow Rate {m3/s}
  ,                                       !- Flow per Space Floor Area {m3/s-m2}
  0.00030226,                             !- Flow per Exterior Surface Area {m3/s-m2}
  ,                                       !- Air Changes per Hour {1/hr}
  ,                                       !- Constant Term Coefficient
  ,                                       !- Temperature Term Coefficient
  ,                                       !- Velocity Term Coefficient
  ;                                       !- Velocity Squared Term Coefficient

OS:Schedule:Ruleset,
  {9d3d0cf1-cc98-4b05-b281-aa9b569cb846}, ! Handle
  Office Infil Quarter On,                ! Name
  {2dc6e39e-1839-48be-933a-bbc41ca7ae5e}, ! Schedule Type Limits Name
  {4e8a50ce-717b-4b18-864b-6c2e59bcdc56}, ! Default Day Schedule Name
  {7b662aed-e594-4993-8d27-273cba5b5377}, ! Summer Design Day Schedule Name
  {93390dc2-157c-41e2-a8fd-ad1c5d7f3db9}; ! Winter Design Day Schedule Name

OS:Schedule:Day,
  {4e8a50ce-717b-4b18-864b-6c2e59bcdc56}, ! Handle
  Office Infil Quarter On Default Schedule, ! Name
  {2dc6e39e-1839-48be-933a-bbc41ca7ae5e}, ! Schedule Type Limits Name
  ,                                       ! Interpolate to Timestep
  6,                                      !- Hour 1
  0,                                      !- Minute 1
  1,                                      !- Value Until Time 1
  22,                                     !- Hour 2
  0,                                      !- Minute 2
  0.25,                                   !- Value Until Time 2
  24,                                     !- Hour 3
  0,                                      !- Minute 3
  1;                                      !- Value Until Time 3

OS:Schedule:Day,
  {7b662aed-e594-4993-8d27-273cba5b5377}, ! Handle
  Office Infil Quarter On Summer Design Day, ! Name
  {2dc6e39e-1839-48be-933a-bbc41ca7ae5e}, ! Schedule Type Limits Name
  ,                                       ! Interpolate to Timestep
  6,                                      ! Hour 1
  0,                                      ! Minute 1
  1,                                      ! Value Until Time 1
  22,                                     ! Hour 2
  0,                                      ! Minute 2
  0.25,                                   ! Value Until Time 2
  24,                                     ! Hour 3
  0,                                      ! Minute 3
  1;                                      ! Value Until Time 3

OS:Schedule:Day,
  {93390dc2-157c-41e2-a8fd-ad1c5d7f3db9}, ! Handle
  Office Infil Quarter On Winter Design Day, ! Name
  {2dc6e39e-1839-48be-933a-bbc41ca7ae5e}, ! Schedule Type Limits Name
  ,                                       ! Interpolate to Timestep
  6,                                      ! Hour 1
  0,                                      ! Minute 1
  1,                                      ! Value Until Time 1
  18,                                     ! Hour 2
  0,                                      ! Minute 2
  0.25,                                   ! Value Until Time 2
  24,                                     ! Hour 3
  0,                                      ! Minute 3
  1;                                      ! Value Until Time 3

OS:Schedule:Rule,
  {83b4aac8-d23a-424e-9115-1bb21a2f4769}, ! Handle
  Office Infil Quarter On Rule 1,         ! Name
  {9d3d0cf1-cc98-4b05-b281-aa9b569cb846}, ! Schedule Ruleset Name
  0,                                      ! Rule Order
  {613072ac-fff6-4722-835d-808a2f632492}, ! Day Schedule Name
  Yes,                                    ! Apply Sunday
  No,                                     ! Apply Monday
  No,                                     ! Apply Tuesday
  No,                                     ! Apply Wednesday
  No,                                     ! Apply Thursday
  No,                                     ! Apply Friday
  No,                                     ! Apply Saturday
  ,                                       ! Apply Holiday
  DateRange,                              ! Date Specification Type
  1,                                      ! Start Month
  1,                                      ! Start Day
  12,                                     ! End Month
  31;                                     ! End Day

OS:Schedule:Day,
  {613072ac-fff6-4722-835d-808a2f632492}, ! Handle
  Office Infil Quarter On Rule 1 Day Schedule, ! Name
  {2dc6e39e-1839-48be-933a-bbc41ca7ae5e}, ! Schedule Type Limits Name
  ,                                       ! Interpolate to Timestep
  24,                                     ! Hour 1
  0,                                      ! Minute 1
  1;                                      ! Value Until Time 1

OS:Schedule:Rule,
  {7bc14ecc-2172-42b6-a67f-5a2bf9247b1c}, ! Handle
  Office Infil Quarter On Rule 2,         ! Name
  {9d3d0cf1-cc98-4b05-b281-aa9b569cb846}, ! Schedule Ruleset Name
  1,                                      ! Rule Order
  {df1109e3-152e-4430-abad-3276d88c6453}, ! Day Schedule Name
  No,                                     ! Apply Sunday
  No,                                     ! Apply Monday
  No,                                     ! Apply Tuesday
  No,                                     ! Apply Wednesday
  No,                                     ! Apply Thursday
  No,                                     ! Apply Friday
  Yes,                                    ! Apply Saturday
  ,                                       ! Apply Holiday
  DateRange,                              ! Date Specification Type
  1,                                      ! Start Month
  1,                                      ! Start Day
  12,                                     ! End Month
  31;                                     ! End Day

OS:Schedule:Day,
  {df1109e3-152e-4430-abad-3276d88c6453}, ! Handle
  Office Infil Quarter On Rule 2 Day Schedule, ! Name
  {2dc6e39e-1839-48be-933a-bbc41ca7ae5e}, ! Schedule Type Limits Name
  ,                                       ! Interpolate to Timestep
  6,                                      ! Hour 1
  0,                                      ! Minute 1
  1,                                      ! Value Until Time 1
  18,                                     ! Hour 2
  0,                                      ! Minute 2
  0.25,                                   ! Value Until Time 2
  24,                                     ! Hour 3
  0,                                      ! Minute 3
  1;                                      ! Value Until Time 3

OS:ElectricEquipment:Definition,
  {0023db01-5fa9-4dd5-a732-3103c1f7250f}, !- Handle
  DOE Ref 2004 - Office - BreakRoom Electric Equipment Definition, !- Name
  Watts/Area,                             !- Design Level Calculation Method
  ,                                       !- Design Level {W}
  60.0626201252403,                       !- Watts per Space Floor Area {W/m2}
  ;                                       !- Watts per Person {W/person}

OS:ElectricEquipment,
  {2ca02db5-fe70-4336-b897-893ead358ea9}, !- Handle
  DOE Ref 2004 - Office - BreakRoom Electric Equipment, !- Name
  {0023db01-5fa9-4dd5-a732-3103c1f7250f}, !- Electric Equipment Definition Name
  {0a758f79-21c0-4275-aa66-fbc07d6913d5}; !- Space or SpaceType Name

OS:Schedule:Ruleset,
  {09401448-bd3e-44e4-b49c-38e89f8390ae}, ! Handle
  Office Bldg Equip,                      ! Name
  {2dc6e39e-1839-48be-933a-bbc41ca7ae5e}, ! Schedule Type Limits Name
  {05f6ced8-538c-4561-b0be-ebabfa89e71b}, ! Default Day Schedule Name