
OS:Version,
  {c83e842d-9dd5-4ede-8583-3dd7844281cc}, !- Handle
  1.6.0;                                  !- Version Identifier

OS:ClimateZones,
  {00dda828-8d9d-4465-bd4d-0c0c556ea992}, !- Handle
  ,                                       !- Active Institution
  ,                                       !- Active Year
  ASHRAE,                                 !- Climate Zone Institution Name 1
  ANSI/ASHRAE Standard 169,               !- Climate Zone Document Name 1
  2006,                                   !- Climate Zone Document Year 1
  ,                                       !- Climate Zone Value 1
  CEC,                                    !- Climate Zone Institution Name 2
  California Climate Zone Descriptions,   !- Climate Zone Document Name 2
  1995,                                   !- Climate Zone Document Year 2
  ;                                       !- Climate Zone Value 2

OS:LifeCycleCost:Parameters,
  {6a4fbf89-81ad-4d65-b366-afd317fb7f33}, !- Handle
  FEMP,                                   !- Analysis Type
  ,                                       !- Discounting Convention
  ,                                       !- Inflation Approach
  ,                                       !- Real Discount Rate
  ,                                       !- Nominal Discount Rate
  ,                                       !- Inflation
  ,                                       !- Base Date Month
  ,                                       !- Base Date Year
  ,                                       !- Service Date Month
  ,                                       !- Service Date Year
  ,                                       !- Length of Study Period in Years
  ,                                       !- Tax Rate
  ,                                       !- Depreciation Method
  Yes;                                    !- Use NIST Fuel Escalation Rates

OS:YearDescription,
  {6db9d436-efda-4d1c-99cd-5e575aafcf98}; !- Handle

OS:Building,
  {aed50290-79f3-49ec-b232-91325ed1b660}, !- Handle
  Building 1,                             !- Name
  ,                                       !- Building Sector Type
  ,                                       !- North Axis {deg}
  ,                                       !- Nominal Floor to Floor Height {m}
  {b3366318-4953-46d9-85aa-bbc1b89ccfc0}, !- Space Type Name
  {6705e9f3-622d-48c2-bb76-fd0fbb4abcde}, !- Default Construction Set Name
  ;                                       !- Default Schedule Set Name

OS:Facility,
  {57faeb43-443e-4961-8221-fe11336fdc41}; !- Handle

OS:SpaceType,
  {56cd4811-adec-4b9a-89fd-890dbffc1119}, !- Handle
  DOE Ref 1980-2004 - SecSchl - Auditorium, !- Name
  ,                                       !- Default Construction Set Name
  {3e821446-b032-4377-97c8-9ac0a4fb17c5}, !- Default Schedule Set Name
  {e2209462-7c1d-4a8b-928b-452c7f3e76fc}, !- Group Rendering Name
  {1992eff4-0caa-43c6-adbd-75368f746cf7}, !- Design Specification Outdoor Air Object Name
  SecondarySchool,                        !- Standards Building Type
  Auditorium;                             !- Standards Space Type

OS:Rendering:Color,
  {e2209462-7c1d-4a8b-928b-452c7f3e76fc}, !- Handle
  Rendering Color 1,                      !- Name
  230,                                    !- Rendering Red Value
  196,                                    !- Rendering Green Value
  120;                                    !- Rendering Blue Value

OS:DefaultScheduleSet,
  {3e821446-b032-4377-97c8-9ac0a4fb17c5}, !- Handle
  DOE Ref 1980-2004 - SecSchl - Auditorium Schedule Set, !- Name
  ,                                       !- Hours of Operation Schedule Name
  {fc4770fe-ee01-476d-ae8b-4da3e5be33b5}, !- Number of People Schedule Name
  {4c149d0c-697f-4193-a124-5da04fe1f8d6}, !- People Activity Level Schedule Name
  {013daefe-9173-4ce6-be22-d0bb11eec218}, !- Lighting Schedule Name
  {43478ef8-b69f-449e-88b5-c46b6d197c8d}, !- Electric Equipment Schedule Name
  ,                                       !- Gas Equipment Schedule Name
  ,                                       !- Hot Water Equipment Schedule Name
  {c672f98b-3d6e-4881-8dfe-eb7056f3682b}, !- Infiltration Schedule Name
  ,                                       !- Steam Equipment Schedule Name
  ;                                       !- Other Equipment Schedule Name

OS:Lights:Definition,
  {ea65eeef-ca46-4e34-a9fb-79b8da4a44a9}, !- Handle
  DOE Ref 1980-2004 - SecSchl - Auditorium Lights Definition, !- Name
  Watts/Area,                             !- Design Level Calculation Method
  ,                                       !- Lighting Level {W}
  12.0555796667149,                       !- Watts per Space Floor Area {W/m2}
  ;                                       !- Watts per Person {W/person}

OS:Lights,
  {041d7b59-db67-4c60-bcf2-c21cd1d8d8e3}, !- Handle
  DOE Ref 1980-2004 - SecSchl - Auditorium Lights, !- Name
  {ea65eeef-ca46-4e34-a9fb-79b8da4a44a9}, !- Lights Definition Name
  {56cd4811-adec-4b9a-89fd-890dbffc1119}; !- Space or SpaceType Name

OS:Schedule:Ruleset,
  {013daefe-9173-4ce6-be22-d0bb11eec218}, ! Handle
  SecondarySchool Bldg Light,             ! Name
  {9a1b336d-56b6-4005-bbd0-9d0e209802fa}, ! Schedule Type Limits Name
  {e8422d6a-1505-490f-b718-645ab23ba093}, ! Default Day Schedule Name
  {5672003c-51d4-4a8f-a04a-787feb9716b4}, ! Summer Design Day Schedule Name
  {a57f10ed-7c10-4545-879d-e91ce99fc24e}; ! Winter Design Day Schedule Name

OS:ScheduleTypeLimits,
  {9a1b336d-56b6-4005-bbd0-9d0e209802fa}, ! Handle
  Fraction,                               ! Name
  0,                                      ! Lower Limit Value
  1,                                      ! Upper Limit Value
  CONTINUOUS;                             ! Numeric Type

OS:Schedule:Day,
  {e8422d6a-1505-490f-b718-645ab23ba093}, ! Handle
  SecondarySchool Bldg Light Default Schedule, ! Name
  {9a1b336d-56b6-4005-bbd0-9d0e209802fa}, ! Schedule Type Limits Name
  ,                                       ! Interpolate to Timestep
  7,                                      !- Hour 1
  0,                                      !- Minute 1
  0.1773,                                 !- Value Until Time 1
  21,                                     !- Hour 2
  0,                                      !- Minute 2
  0.9,                                    !- Value Until Time 2
  24,                                     !- Hour 3
  0,                                      !- Minute 3
  0.1773;                                 !- Value Until Time 3

OS:Schedule:Day,
  {5672003c-51d4-4a8f-a04a-787feb9716b4}, ! Handle
  SecondarySchool Bldg Light Summer Design Day, ! Name
  {9a1b336d-56b6-4005-bbd0-9d0e209802fa}, ! Schedule Type Limits Name
  ,                                       ! Interpolate to Timestep
  7,                                      ! Hour 1
  0,                                      ! Minute 1
  0.17730000000000001,                    ! Value Until Time 1
  21,                                     ! Hour 2
  0,                                      ! Minute 2
  0.90000000000000002,                    ! Value Until Time 2
  24,                                     ! Hour 3
  0,                                      ! Minute 3
  0.17730000000000001;                    ! Value Until Time 3

OS:Schedule:Day,
  {a57f10ed-7c10-4545-879d-e91ce99fc24e}, ! Handle
  SecondarySchool Bldg Light Winter Design Day, ! Name
  {9a1b336d-56b6-4005-bbd0-9d0e209802fa}, ! Schedule Type Limits Name
  ,                                       ! Interpolate to Timestep
  24,                                     ! Hour 1
  0,                                      ! Minute 1
  0.17730000000000001;                    ! Value Until Time 1

OS:Schedule:Rule,
  {b23bf115-3902-46a2-a482-a0079eaea430}, ! Handle
  SecondarySchool Bldg Light Rule 1,      ! Name
  {013daefe-9173-4ce6-be22-d0bb11eec218}, ! Schedule Ruleset Name
  0,                                      ! Rule Order
  {4afbf812-98fc-47cd-828d-7e041b99d56a}, ! Day Schedule Name
  Yes,                                    ! Apply Sunday
  No,                                     ! Apply Monday
  No,                                     ! Apply Tuesday
  No,                                     ! Apply Wednesday
  No,                                     ! Apply Thursday
  No,                                     ! Apply Friday
  Yes,                                    ! Apply Saturday
  ,                                       ! Apply Holiday
  DateRange,                              ! Date Specification Type
  9,                                      ! Start Month
  1,                                      ! Start Day
  12,                                     ! End Month
  31;                                     ! End Day

OS:Schedule:Day,
  {4afbf812-98fc-47cd-828d-7e041b99d56a}, ! Handle
  SecondarySchool Bldg Light Rule 1 Day Schedule, ! Name
  {9a1b336d-56b6-4005-bbd0-9d0e209802fa}, ! Schedule Type Limits Name
  ,                                       ! Interpolate to Timestep
  24,                                     ! Hour 1
  0,                                      ! Minute 1
  0.17730000000000001;                    ! Value Until Time 1

OS:Schedule:Rule,
  {e94ede6f-3abd-4ad3-9e70-cd95d4efc737}, ! Handle
  SecondarySchool Bldg Light Rule 2,      ! Name
  {013daefe-9173-4ce6-be22-d0bb11eec218}, ! Schedule Ruleset Name
  1,                                      ! Rule Order
  {00ffb03a-3fd4-47a2-894c-5752af73119e}, ! Day Schedule Name
  No,                                     ! Apply Sunday
  Yes,                                    ! Apply Monday
  Yes,                                    ! Apply Tuesday
  Yes,                                    ! Apply Wednesday
  Yes,                                    ! Apply Thursday
  Yes,                                    ! Apply Friday
  No,                                     ! Apply Saturday
  ,                                       ! Apply Holiday
  DateRange,                              ! Date Specification Type
  9,                                      ! Start Month
  1,                                      ! Start Day
  12,                                     ! End Month
  31;                                     ! End Day

OS:Schedule:Day,
  {00ffb03a-3fd4-47a2-894c-5752af73119e}, ! Handle
  SecondarySchool Bldg Light Rule 2 Day Schedule, ! Name
  {9a1b336d-56b6-4005-bbd0-9d0e209802fa}, ! Schedule Type Limits Name
  ,                                       ! Interpolate to Timestep
  7,                                      ! Hour 1
  0,                                      ! Minute 1
  0.17730000000000001,                    ! Value Until Time 1
  21,                                     ! Hour 2
  0,                                      ! Minute 2
  0.90000000000000002,                    ! Value Until Time 2
  24,                                     ! Hour 3
  0,                                      ! Minute 3
  0.17730000000000001;                    ! Value Until Time 3

OS:Schedule:Rule,
  {e6b7f2a8-727e-4f08-86ca-ca52aebfd80c}, ! Handle
  SecondarySchool Bldg Light Rule 3,      ! Name
  {013daefe-9173-4ce6-be22-d0bb11eec218}, ! Schedule Ruleset Name
  2,                                      ! Rule Order
  {16a24b28-0501-4558-99d3-a058312f6d59}, ! Day Schedule Name
  Yes,                                    ! Apply Sunday
  No,                                     ! Apply Monday
  No,                                     ! Apply Tuesday
  No,                                     ! Apply Wednesday
  No,                                     ! Apply Thursday
  No,                                     ! Apply Friday
  Yes,                                    ! Apply Saturday
  ,                                       ! Apply Holiday
  DateRange,                              ! Date Specification Type
  7,                                      ! Start Month
  1,                                      ! Start Day
  9,                                      ! End Month
  1;                                      ! End Day

OS:Schedule:Day,
  {16a24b28-0501-4558-99d3-a058312f6d59}, ! Handle
  SecondarySchool Bldg Light Rule 3 Day Schedule, ! Name
  {9a1b336d-56b6-4005-bbd0-9d0e209802fa}, ! Schedule Type Limits Name
  ,                                       ! Interpolate to Timestep
  24,                                     ! Hour 1
  0,                                      ! Minute 1
  0.17730000000000001;                    ! Value Until Time 1

OS:Schedule:Rule,
  {725e491d-f3b9-4ca3-9d13-8a245e573ee9}, ! Handle
  SecondarySchool Bldg Light Rule 4,      ! Name
  {013daefe-9173-4ce6-be22-d0bb11eec218}, ! Schedule Ruleset Name
  3,                                      ! Rule Order
  {5fd520b2-3e3f-4905-af66-5c7ccac49e0a}, ! Day Schedule Name
  No,                                     ! Apply Sunday
  Yes,                                    ! Apply Monday
  Yes,                                    ! Apply Tuesday
  Yes,                                    ! Apply Wednesday
  Yes,                                    ! Apply Thursday
  Yes,                                    ! Apply Friday
  No,                                     ! Apply Saturday
  ,                                       ! Apply Holiday
  DateRange,                              ! Date Specification Type
  7,                                      ! Start Month
  1,                                      ! Start Day
  9,                                      ! End Month
  1;                                      ! End Day

OS:Schedule:Day,
  {5fd520b2-3e3f-4905-af66-5c7ccac49e0a}, ! Handle
  SecondarySchool Bldg Light Rule 4 Day Schedule, ! Name
  {9a1b336d-56b6-4005-bbd0-9d0e209802fa}, ! Schedule Type Limits Name
  ,                                       ! Interpolate to Timestep
  8,                                      ! Hour 1
  0,                                      ! Minute 1
  0.17730000000000001,                    ! Value Until Time 1
  20,                                     ! Hour 2
  0,                                      ! Minute 2
  0.5,                                    ! Value Until Time 2
  24,                                     ! Hour 3
  0,                                      ! Minute 3
  0.17730000000000001;                    ! Value Until Time 3

OS:Schedule:Rule,
  {c4b36eee-1cf9-466d-9a90-b29a7c45de87}, ! Handle
  SecondarySchool Bldg Light Rule 5,      ! Name
  {013daefe-9173-4ce6-be22-d0bb11eec218}, ! Schedule Ruleset Name
  4,                                      ! Rule Order
  {8cb4aacf-aa3b-43a9-8f7d-7aa73d293925}, ! Day Schedule Name
  Yes,                                    ! Apply Sunday
  No,                                     ! Apply Monday
  No,                                     ! Apply Tuesday
  No,                                     ! Apply Wednesday
  No,                                     ! Apply Thursday
  No,                                     ! Apply Friday
  Yes,                                    ! Apply Saturday
  ,                                       ! Apply Holiday
  DateRange,                              ! Date Specification Type
  1,                                      ! Start Month
  1,                                      ! Start Day
  6,                                      ! End Month
  30;                                     ! End Day

OS:Schedule:Day,
  {8cb4aacf-aa3b-43a9-8f7d-7aa73d293925}, ! Handle
  SecondarySchool Bldg Light Rule 5 Day Schedule, ! Name
  {9a1b336d-56b6-4005-bbd0-9d0e209802fa}, ! Schedule Type Limits Name
  ,                                       ! Interpolate to Timestep
  24,                                     ! Hour 1
  0,                                      ! Minute 1
  0.17730000000000001;                    ! Value Until Time 1

OS:DesignSpecification:OutdoorAir,
  {1992eff4-0caa-43c6-adbd-75368f746cf7}, !- Handle
  DOE Ref 1980-2004 - SecSchl - Auditorium Ventilation, !- Name
  Sum,                                    !- Outdoor Air Method
  0.007079211648,                         !- Outdoor Air Flow per Person {m3/s-person}
  ,                                       !- Outdoor Air Flow per Floor Area {m3/s-m2}
  ,                                       !- Outdoor Air Flow Rate {m3/s}
  ,                                       !- Outdoor Air Flow Air Changes per Hour {1/hr}
  ;                                       !- Outdoor Air Flow Rate Fraction Schedule Name

OS:People:Definition,
  {5d8881e2-d875-4c7b-9ecc-280afbfcdd50}, !- Handle
  DOE Ref 1980-2004 - SecSchl - Auditorium People Definition, !- Name
  People/Area,                            !- Number of People Calculation Method
  ,                                       !- Number of People {people}
  1.000397834129,                         !- People per Space Floor Area {person/m2}
  ,                                       !- Space Floor Area per Person {m2/person}
  0.3;                                    !- Fraction Radiant

OS:People,
  {822a5ad9-2c34-401d-a5d0-b2c8bca16bd1}, !- Handle
  DOE Ref 1980-2004 - SecSchl - Auditorium People, !- Name
  {5d8881e2-d875-4c7b-9ecc-280afbfcdd50}, !- People Definition Name
  {56cd4811-adec-4b9a-89fd-890dbffc1119}; !- Space or SpaceType Name

OS:Schedule:Ruleset,
  {fc4770fe-ee01-476d-ae8b-4da3e5be33b5}, ! Handle
  SecondarySchool Auditorium Occ,         ! Name
  {9a1b336d-56b6-4005-bbd0-9d0e209802fa}, ! Schedule Type Limits Name
  {98d82568-99d7-493f-a58f-95c54c0143c5}, ! Default Day Schedule Name
  {20d8a259-f46a-43b8-bac8-e8388f67a7b5}, ! Summer Design Day Schedule Name
  {8853910e-bc54-4b77-8bb5-d18ebc468322}; ! Winter Design Day Schedule Name

OS:Schedule:Day,
  {98d82568-99d7-493f-a58f-95c54c0143c5}, ! Handle
  SecondarySchool Auditorium Occ Default Schedule, ! Name
  {9a1b336d-56b6-4005-bbd0-9d0e209802fa}, ! Schedule Type Limits Name
  ,                                       ! Interpolate to Timestep
  8,                                      !- Hour 1
  0,                                      !- Minute 1
  0,                                      !- Value Until Time 1
  15,                                     !- Hour 2
  0,                                      !- Minute 2
  0.25,                                   !- Value Until Time 2
  17,                                     !- Hour 3
  0,                                      !- Minute 3
  0.95,                                   !- Value Until Time 3
  20,                                     !- Hour 4
  0,                                      !- Minute 4
  0.1,                                    !- Value Until Time 4
  24,                                     !- Hour 5
  0,                                      !- Minute 5
  0;                                      !- Value Until Time 5

OS:Schedule:Day,
  {20d8a259-f46a-43b8-bac8-e8388f67a7b5}, ! Handle
  SecondarySchool Auditorium Occ Summer Design Day, ! Name
  {9a1b336d-56b6-4005-bbd0-9d0e209802fa}, ! Schedule Type Limits Name
  ,                                       ! Interpolate to Timestep
  8,                                      ! Hour 1
  0,                                      ! Minute 1
  0,                                      ! Value Until Time 1
  15,                                     ! Hour 2
  0,                                      ! Minute 2
  0.25,                                   ! Value Until Time 2
  17,                                     ! Hour 3
  0,                                      ! Minute 3
  0.94999999999999996,                    ! Value Until Time 3
  20,                                     ! Hour 4
  0,                                      ! Minute 4
  0.10000000000000001,                    ! Value Until Time 4
  24,                                     ! Hour 5
  0,                                      ! Minute 5
  0;                                      ! Value Until Time 5

OS:Schedule:Day,
  {8853910e-bc54-4b77-8bb5-d18ebc468322}, ! Handle
  SecondarySchool Auditorium Occ Winter Design Day, ! Name
  {9a1b336d-56b6-4005-bbd0-9d0e209802fa}, ! Schedule Type Limits Name
  ,                                       ! Interpolate to Timestep
  24,                                     ! Hour 1
  0,                                      ! Minute 1
  0;                                      ! Value Until Time 1

OS:Schedule:Rule,
  {664cfb19-a066-432a-b706-2e9dcc189d79}, ! Handle
  SecondarySchool Auditorium Occ Rule 1,  ! Name
  {fc4770fe-ee01-476d-ae8b-4da3e5be33b5}, ! Schedule Ruleset Name
  0,                                      ! Rule Order
  {b0688dab-c109-4d13-a214-71d747992868}, ! Day Schedule Name
  Yes,                                    ! Apply Sunday
  No,                                     ! Apply Monday
  No,                                     ! Apply Tuesday
  No,                                     ! Apply Wednesday
  No,                                     ! Apply Thursday
  No,                                     ! Apply Friday
  Yes,                                    ! Apply Saturday
  ,                                       ! Apply Holiday
  DateRange,                              ! Date Specification Type
  9,                                      ! Start Month
  1,                                      ! Start Day
  12,                                     ! End Month
  31;                                     ! End Day

OS:Schedule:Day,
  {b0688dab-c109-4d13-a214-71d747992868}, ! Handle
  SecondarySchool Auditorium Occ Rule 1 Day Schedule, ! Name
  {9a1b336d-56b6-4005-bbd0-9d0e209802fa}, ! Schedule Type Limits Name
  ,                                       ! Interpolate to Timestep
  24,                                     ! Hour 1
  0,                                      ! Minute 1
  0;                                      ! Value Until Time 1

OS:Schedule:Rule,
  {a6783c00-e83d-4b92-953c-859e9b2fc5e6}, ! Handle
  SecondarySchool Auditorium Occ Rule 2,  ! Name
  {fc4770fe-ee01-476d-ae8b-4da3e5be33b5}, ! Schedule Ruleset Name
  1,                                      ! Rule Order
  {3b348eda-d77a-4c2f-aff4-060149562230}, ! Day Schedule Name
  No,                                     ! Apply Sunday
  Yes,                                    ! Apply Monday
  Yes,                                    ! Apply Tuesday
  Yes,                                    ! Apply Wednesday
  Yes,                                    ! Apply Thursday
  Yes,                                    ! Apply Friday
  No,                                     ! Apply Saturday
  ,                                       ! Apply Holiday
  DateRange,                              ! Date Specification Type
  9,                                      ! Start Month
  1,                                      ! Start Day
  12,                                     ! End Month
  31;                                     ! End Day

OS:Schedule:Day,
  {3b348eda-d77a-4c2f-aff4-060149562230}, ! Handle
  SecondarySchool Auditorium Occ Rule 2 Day Schedule, ! Name
  {9a1b336d-56b6-4005-bbd0-9d0e209802fa}, ! Schedule Type Limits Name
  ,                                       ! Interpolate to Timestep
  8,                                      ! Hour 1
  0,                                      ! Minute 1
  0,                                      ! Value Until Time 1
  15,                                     ! Hour 2
  0,                                      ! Minute 2
  0.25,                                   ! Value Until Time 2
  17,                                     ! Hour 3
  0,                                      ! Minute 3
  0.94999999999999996,                    ! Value Until Time 3
  20,                                     ! Hour 4
  0,                                      ! Minute 4
  0.10000000000000001,                    ! Value Until Time 4
  24,                                     ! Hour 5
  0,                                      ! Minute 5
  0;                                      ! Value Until Time 5

OS:Schedule:Rule,
  {c41f1a07-5a5e-4c12-ae24-f13d73a993ac}, ! Handle
  SecondarySchool Auditorium Occ Rule 3,  ! Name
  {fc4770fe-ee01-476d-ae8b-4da3e5be33b5}, ! Schedule Ruleset Name
  2,                                      ! Rule Order
  {6f7b69d2-8582-46f0-b67b-944d0273730a}, ! Day Schedule Name
  Yes,                                    ! Apply Sunday
  No,                                     ! Apply Monday
  No,                                     ! Apply Tuesday
  No,                                     ! Apply Wednesday
  No,                                     ! Apply Thursday
  No,                                     ! Apply Friday
  Yes,                                    ! Apply Saturday
  ,                                       ! Apply Holiday
  DateRange,                              ! Date Specification Type
  7,                                      ! Start Month
  1,                                      ! Start Day
  9,                                      ! End Month
  1;                                      ! End Day

OS:Schedule:Day,
  {6f7b69d2-8582-46f0-b67b-944d0273730a}, ! Handle
  SecondarySchool Auditorium Occ Rule 3 Day Schedule, ! Name
  {9a1b336d-56b6-4005-bbd0-9d0e209802fa}, ! Schedule Type Limits Name
  ,                                       ! Interpolate to Timestep
  24,                                     ! Hour 1
  0,                                      ! Minute 1
  0;                                      ! Value Until Time 1

OS:Schedule:Rule,
  {13e9d11b-d200-4691-b0c1-b261757cb145}, ! Handle
  SecondarySchool Auditorium Occ Rule 4,  ! Name
  {fc4770fe-ee01-476d-ae8b-4da3e5be33b5}, ! Schedule Ruleset Name
  3,                                      ! Rule Order
  {9e4d48a5-ab9c-43c7-9bae-47a7aa8adf64}, ! Day Schedule Name
  No,                                     ! Apply Sunday
  Yes,                                    ! Apply Monday
  Yes,                                    ! Apply Tuesday
  Yes,                                    ! Apply Wednesday
  Yes,                                    ! Apply Thursday
  Yes,                                    ! Apply Friday
  No,                                     ! Apply Saturday
  ,                                       ! Apply Holiday
  DateRange,                              ! Date Specification Type
  7,                                      ! Start Month
  1,                                      ! Start Day
  9,                                      ! End Month
  1;                                      ! End Day

OS:Schedule:Day,
  {9e4d48a5-ab9c-43c7-9bae-47a7aa8adf64}, ! Handle
  SecondarySchool Auditorium Occ Rule 4 Day Schedule, ! Name
  {9a1b336d-56b6-4005-bbd0-9d0e209802fa}, ! Schedule Type Limits Name
  ,                                       ! Interpolate to Timestep
  8,                                      ! Hour 1
  0,                                      ! Minute 1
  0,                                      ! Value Until Time 1
  17,                                     ! Hour 2
  0,                                      ! Minute 2
  0.14999999999999999,                    ! Value Until Time 2
  19,                                     ! Hour 3
  0,                                      ! Minute 3
  0.34999999999999998,                    ! Value Until Time 3
  24,                                     ! Hour 4
  0,                                      ! Minute 4
  0;                                      ! Value Until Time 4

OS:Schedule:Rule,
  {153069d2-af3d-4361-9ae2-af7ed097293e}, ! Handle
  SecondarySchool Auditorium Occ Rule 5,  ! Name
  {fc4770fe-ee01-476d-ae8b-4da3e5be33b5}, ! Schedule Ruleset Name
  4,                                      ! Rule Order
  {edc402ca-c99a-4723-acb0-896182093103}, ! Day Schedule Name
  Yes,                                    ! Apply Sunday
  No,                                     ! Apply Monday
  No,                                     ! Apply Tuesday
  No,                                     ! Apply Wednesday
  No,                                     ! Apply Thursday
  No,                                     ! Apply Friday
  Yes,                                    ! Apply Saturday
  ,                                       ! Apply Holiday
  DateRange,                              ! Date Specification Type
  1,                                      ! Start Month
  1,                                      ! Start Day
  6,                                      ! End Month
  30;                                     ! End Day

OS:Schedule:Day,
  {edc402ca-c99a-4723-acb0-896182093103}, ! Handle
  SecondarySchool Auditorium Occ Rule 5 Day Schedule, ! Name
  {9a1b336d-56b6-4005-bbd0-9d0e209802fa}, ! Schedule Type Limits Name
  ,                                       ! Interpolate to Timestep
  24,                                     ! Hour 1
  0,                                      ! Minute 1
  0;                                      ! Value Until Time 1

OS:Schedule:Ruleset,
  {4c149d0c-697f-4193-a124-5da04fe1f8d6}, ! Handle
  SecondarySchool Activity,               ! Name
  {9811a81e-4c03-4332-a717-4dae34190364}, ! Schedule Type Limits Name
  {662fa2bb-b79b-45dd-a873-a4032f715a23}, ! Default Day Schedule Name
  {2667cbae-6d9e-4ff8-a43e-36daed06efc7}, ! Summer Design Day Schedule Name
  {cebd25da-bd77-4bc8-befb-d6d3e9a69a0e}; ! Winter Design Day Schedule Name

OS:ScheduleTypeLimits,
  {9811a81e-4c03-4332-a717-4dae34190364}, !- Handle
  ActivityLevel 2,                        !- Name
  0,                                      !- Lower Limit Value {BasedOnField A4}
  ,                                       !- Upper Limit Value {BasedOnField A4}
  Continuous,                             !- Numeric Type
  ActivityLevel;                          !- Unit Type

OS:Schedule:Day,
  {662fa2bb-b79b-45dd-a873-a4032f715a23}, ! Handle
  SecondarySchool Activity Default Schedule, ! Name
  {9811a81e-4c03-4332-a717-4dae34190364}, ! Schedule Type Limits Name
  ,                                       ! Interpolate to Timestep