
OS:Version,
  {c83e842d-9dd5-4ede-8583-3dd7844281cc}, !- Handle
  1.6.0;                                  !- Version Identifier

OS:ClimateZones,
  {00dda828-8d9d-4465-bd4d-0c0c556ea992}, !- Handle
  ,                                       !- Active Institution
  ,                                       !- Active Year
  ASHRAE,                                 !- Climate Zone Institution Name 1
  ANSI/ASHRAE Standard 169,               !- Climate Zone Document Name 1
  2006,                                   !- Climate Zone Document Year 1
  ,                                       !- Climate Zone Value 1
  CEC,                                    !- Climate Zone Institution Name 2
  California Climate Zone Descriptions,   !- Climate Zone Document Name 2
  1995,                                   !- Climate Zone Document Year 2
  ;                                       !- Climate Zone Value 2

OS:LifeCycleCost:Parameters,
  {6a4fbf89-81ad-4d65-b366-afd317fb7f33}, !- Handle
  FEMP,                                   !- Analysis Type
  ,                                       !- Discounting Convention
  ,                                       !- Inflation Approach
  ,                                       !- Real Discount Rate
  ,                                       !- Nominal Discount Rate
  ,                                       !- Inflation
  ,                                       !- Base Date Month
  ,                                       !- Base Date Year
  ,                                       !- Service Date Month
  ,                                       !- Service Date Year
  ,                                       !- Length of Study Period in Years
  ,                                       !- Tax Rate
  ,                                       !- Depreciation Method
  Yes;                                    !- Use NIST Fuel Escalation Rates

OS:YearDescription,
  {6db9d436-efda-4d1c-99cd-5e575aafcf98}; !- Handle

OS:Building,
  {aed50290-79f3-49ec-b232-91325ed1b660}, !- Handle
  Building 1,                             !- Name
  ,                                       !- Building Sector Type
  ,                                       !- North Axis {deg}
  ,                                       !- Nominal Floor to Floor Height {m}
  {3febbd26-8e57-4741-90b4-17e303e8d5ab}, !- Space Type Name
  {b38a85e3-6157-4eff-9cdf-79a40ae82766}, !- Default Construction Set Name
  ;                                       !- Default Schedule Set Name

OS:Facility,
  {57faeb43-443e-4961-8221-fe11336fdc41}; !- Handle

OS:SpaceType,
  {3febbd26-8e57-4741-90b4-17e303e8d5ab}, !- Handle
  DOE Ref 1980-2004 - Warehouse - Bulk,   !- Name
  ,                                       !- Default Construction Set Name
  {6f1da805-dd59-4a93-8eb1-1d17bf5c19cb}, !- Default Schedule Set Name
  {37599f5c-8a6a-4eeb-96de-ba369b585fa3}, !- Group Rendering Name
  {9581fabf-92b8-43b3-81e3-14cbccc1a953}, !- Design Specification Outdoor Air Object Name
  Warehouse,                              !- Standards Building Type
  Bulk;                                   !- Standards Space Type

OS:Rendering:Color,
  {37599f5c-8a6a-4eeb-96de-ba369b585fa3}, !- Handle
  Rendering Color 1,                      !- Name
  41,                                     !- Rendering Red Value
  31,                                     !- Rendering Green Value
  169;                                    !- Rendering Blue Value

OS:DefaultScheduleSet,
  {6f1da805-dd59-4a93-8eb1-1d17bf5c19cb}, !- Handle
  DOE Ref 1980-2004 - Warehouse - Bulk Schedule Set, !- Name
  ,                                       !- Hours of Operation Schedule Name
  ,                                       !- Number of People Schedule Name
  ,                                       !- People Activity Level Schedule Name
  {2702690e-a5b3-4fe8-b070-c3eab306b90d}, !- Lighting Schedule Name
  {3e1e7e5d-e1f0-4962-aefd-a35ded15df42}, !- Electric Equipment Schedule Name
  ,                                       !- Gas Equipment Schedule Name
  ,                                       !- Hot Water Equipment Schedule Name
  {c29773a8-4ce9-4f45-b20b-b6f5e062bbec}, !- Infiltration Schedule Name
  ,                                       !- Steam Equipment Schedule Name
  ;                                       !- Other Equipment Schedule Name

OS:Lights:Definition,
  {e4bd3e38-8e4f-4fb8-b862-fbed507b8db1}, !- Handle
  DOE Ref 1980-2004 - Warehouse - Bulk Lights Definition, !- Name
  Watts/Area,                             !- Design Level Calculation Method
  ,                                       !- Lighting Level {W}
  3.33681222918001,                       !- Watts per Space Floor Area {W/m2}
  ;                                       !- Watts per Person {W/person}

OS:Lights,
  {cc2b345f-8222-4d62-8e54-0c20f8b90082}, !- Handle
  DOE Ref 1980-2004 - Warehouse - Bulk Lights, !- Name
  {e4bd3e38-8e4f-4fb8-b862-fbed507b8db1}, !- Lights Definition Name
  {3febbd26-8e57-4741-90b4-17e303e8d5ab}; !- Space or SpaceType Name

OS:Schedule:Ruleset,
  {2702690e-a5b3-4fe8-b070-c3eab306b90d}, ! Handle
  Warehouse Bldg Light,                   ! Name
  {222ec640-78d1-481e-a712-149a888e76b5}, ! Schedule Type Limits Name
  {fbc7f0cb-4e26-4bd8-b6ff-de815d85ae25}, ! Default Day Schedule Name
  {ae0d6a6a-9b09-412c-9892-0a6e02f91989}, ! Summer Design Day Schedule Name
  {571339ce-fd02-467e-b1cc-80794c482e18}; ! Winter Design Day Schedule Name

OS:ScheduleTypeLimits,
  {222ec640-78d1-481e-a712-149a888e76b5}, ! Handle
  Fraction,                               ! Name
  0,                                      ! Lower Limit Value
  1,                                      ! Upper Limit Value
  CONTINUOUS;                             ! Numeric Type

OS:Schedule:Day,
  {fbc7f0cb-4e26-4bd8-b6ff-de815d85ae25}, ! Handle
  Warehouse Bldg Light Default Schedule,  ! Name
  {222ec640-78d1-481e-a712-149a888e76b5}, ! Schedule Type Limits Name
  ,                                       ! Interpolate to Timestep
  7,                                      !- Hour 1
  0,                                      !- Minute 1
  0.1,                                    !- Value Until Time 1
  8,                                      !- Hour 2
  0,                                      !- Minute 2
  0.4,                                    !- Value Until Time 2
  9,                                      !- Hour 3
  0,                                      !- Minute 3
  0.7,                                    !- Value Until Time 3
  12,                                     !- Hour 4
  0,                                      !- Minute 4
  0.9,                                    !- Value Until Time 4
  13,                                     !- Hour 5
  0,                                      !- Minute 5
  0.8,                                    !- Value Until Time 5
  17,                                     !- Hour 6
  0,                                      !- Minute 6
  0.9,                                    !- Value Until Time 6
  18,                                     !- Hour 7
  0,                                      !- Minute 7
  0.3,                                    !- Value Until Time 7
  24,                                     !- Hour 8
  0,                                      !- Minute 8
  0.1;                                    !- Value Until Time 8

OS:Schedule:Day,
  {ae0d6a6a-9b09-412c-9892-0a6e02f91989}, ! Handle
  Warehouse Bldg Light Summer Design Day, ! Name
  {222ec640-78d1-481e-a712-149a888e76b5}, ! Schedule Type Limits Name
  ,                                       ! Interpolate to Timestep
  24,                                     ! Hour 1
  0,                                      ! Minute 1
  1;                                      ! Value Until Time 1

OS:Schedule:Day,
  {571339ce-fd02-467e-b1cc-80794c482e18}, ! Handle
  Warehouse Bldg Light Winter Design Day, ! Name
  {222ec640-78d1-481e-a712-149a888e76b5}, ! Schedule Type Limits Name
  ,                                       ! Interpolate to Timestep
  24,                                     ! Hour 1
  0,                                      ! Minute 1
  0;                                      ! Value Until Time 1

OS:Schedule:Rule,
  {698ee43d-0d99-4aff-92f4-e51a64a358c2}, ! Handle
  Warehouse Bldg Light Rule 1,            ! Name
  {2702690e-a5b3-4fe8-b070-c3eab306b90d}, ! Schedule Ruleset Name
  0,                                      ! Rule Order
  {3a7e8864-2d03-478a-bf13-49a90df83dbb}, ! Day Schedule Name
  Yes,                                    ! Apply Sunday
  No,                                     ! Apply Monday
  No,                                     ! Apply Tuesday
  No,                                     ! Apply Wednesday
  No,                                     ! Apply Thursday
  No,                                     ! Apply Friday
  No,                                     ! Apply Saturday
  ,                                       ! Apply Holiday
  DateRange,                              ! Date Specification Type
  1,                                      ! Start Month
  1,                                      ! Start Day
  12,                                     ! End Month
  31;                                     ! End Day

OS:Schedule:Day,
  {3a7e8864-2d03-478a-bf13-49a90df83dbb}, ! Handle
  Warehouse Bldg Light Rule 1 Day Schedule, ! Name
  {222ec640-78d1-481e-a712-149a888e76b5}, ! Schedule Type Limits Name
  ,                                       ! Interpolate to Timestep
  24,                                     ! Hour 1
  0,                                      ! Minute 1
  0.10000000000000001;                    ! Value Until Time 1

OS:Schedule:Rule,
  {5d14f30a-7467-4639-a709-b394602bc878}, ! Handle
  Warehouse Bldg Light Rule 2,            ! Name
  {2702690e-a5b3-4fe8-b070-c3eab306b90d}, ! Schedule Ruleset Name
  1,                                      ! Rule Order
  {820b2029-1cb6-4837-9394-fd1d409c0c13}, ! Day Schedule Name
  No,                                     ! Apply Sunday
  No,                                     ! Apply Monday
  No,                                     ! Apply Tuesday
  No,                                     ! Apply Wednesday
  No,                                     ! Apply Thursday
  No,                                     ! Apply Friday
  Yes,                                    ! Apply Saturday
  ,                                       ! Apply Holiday
  DateRange,                              ! Date Specification Type
  1,                                      ! Start Month
  1,                                      ! Start Day
  12,                                     ! End Month
  31;                                     ! End Day

OS:Schedule:Day,
  {820b2029-1cb6-4837-9394-fd1d409c0c13}, ! Handle
  Warehouse Bldg Light Rule 2 Day Schedule, ! Name
  {222ec640-78d1-481e-a712-149a888e76b5}, ! Schedule Type Limits Name
  ,                                       ! Interpolate to Timestep
  8,                                      ! Hour 1
  0,                                      ! Minute 1
  0.10000000000000001,                    ! Value Until Time 1
  9,                                      ! Hour 2
  0,                                      ! Minute 2
  0.10000000000000001,                    ! Value Until Time 2
  12,                                     ! Hour 3
  0,                                      ! Minute 3
  0.23999999999999999,                    ! Value Until Time 3
  24,                                     ! Hour 4
  0,                                      ! Minute 4
  0.10000000000000001;                    ! Value Until Time 4

OS:DesignSpecification:OutdoorAir,
  {9581fabf-92b8-43b3-81e3-14cbccc1a953}, !- Handle
  DOE Ref 1980-2004 - Warehouse - Bulk Ventilation, !- Name
  Sum,                                    !- Outdoor Air Method
  ,                                       !- Outdoor Air Flow per Person {m3/s-person}
  0.000254,                               !- Outdoor Air Flow per Floor Area {m3/s-m2}
  ,                                       !- Outdoor Air Flow Rate {m3/s}
  ,                                       !- Outdoor Air Flow Air Changes per Hour {1/hr}
  ;                                       !- Outdoor Air Flow Rate Fraction Schedule Name

OS:SpaceInfiltration:DesignFlowRate,
  {6dd91478-190b-4a8a-bf52-93a925076c81}, !- Handle
  DOE Ref 1980-2004 - Warehouse - Bulk Infiltration, !- Name
  {3febbd26-8e57-4741-90b4-17e303e8d5ab}, !- Space or SpaceType Name
  ,                                       !- Schedule Name
  Flow/ExteriorArea,                      !- Design Flow Rate Calculation Method
  ,                                       !- Design Flow Rate {m3/s}
  ,                                       !- Flow per Space Floor Area {m3/s-m2}
  0.001133856,                            !- Flow per Exterior Surface Area {m3/s-m2}
  ,                                       !- Air Changes per Hour {1/hr}
  ,                                       !- Constant Term Coefficient
  ,                                       !- Temperature Term Coefficient
  ,                                       !- Velocity Term Coefficient
  ;                                       !- Velocity Squared Term Coefficient

OS:Schedule:Ruleset,
  {c29773a8-4ce9-4f45-b20b-b6f5e062bbec}, ! Handle
  Always On,                              ! Name
  {c02df7b2-29a8-4683-973b-04000f2a106f}, ! Schedule Type Limits Name
  {f7de8e92-f812-4a6d-9dce-bded8eb43bff}, ! Default Day Schedule Name
  {cd1c482b-2629-4975-ae37-ef4392c6eb2b}, ! Summer Design Day Schedule Name
  {259c5fbc-dec7-443f-91db-0bdfad8608c0}; ! Winter Design Day Schedule Name

OS:ScheduleTypeLimits,
  {c02df7b2-29a8-4683-973b-04000f2a106f}, ! Handle
  On/Off,                                 ! Name
  0,                                      ! Lower Limit Value
  1,                                      ! Upper Limit Value
  DISCRETE;                               ! Numeric Type

OS:Schedule:Day,
  {f7de8e92-f812-4a6d-9dce-bded8eb43bff}, ! Handle
  Always On Default Schedule,             ! Name
  {c02df7b2-29a8-4683-973b-04000f2a106f}, ! Schedule Type Limits Name
  ,                                       ! Interpolate to Timestep
  24,                                     !- Hour 1
  0,                                      !- Minute 1
  1;                                      !- Value Until Time 1

OS:Schedule:Day,
  {cd1c482b-2629-4975-ae37-ef4392c6eb2b}, ! Handle
  Always On Summer Design Day,            ! Name
  {c02df7b2-29a8-4683-973b-04000f2a106f}, ! Schedule Type Limits Name
  ,                                       ! Interpolate to Timestep
  24,                                     ! Hour 1
  0,                                      ! Minute 1
  1;                                      ! Value Until Time 1

OS:Schedule:Day,
  {259c5fbc-dec7-443f-91db-0bdfad8608c0}, ! Handle
  Always On Winter Design Day,            ! Name
  {c02df7b2-29a8-4683-973b-04000f2a106f}, ! Schedule Type Limits Name
  ,                                       ! Interpolate to Timestep
  24,                                     ! Hour 1
  0,                                      ! Minute 1
  1;                                      ! Value Until Time 1

OS:ElectricEquipment:Definition,
  {0061a243-daf9-4822-80a9-547e4c4d8f52}, !- Handle
  DOE Ref 1980-2004 - Warehouse - Bulk Electric Equipment Definition, !- Name
  Watts/Area,                             !- Design Level Calculation Method
  ,                                       !- Design Level {W}
  2.69097760417743,                       !- Watts per Space Floor Area {W/m2}
  ;                                       !- Watts per Person {W/person}

OS:ElectricEquipment,
  {a1d82b60-359d-42dd-801c-d8acce07cf68}, !- Handle
  DOE Ref 1980-2004 - Warehouse - Bulk Electric Equipment, !- Name
  {0061a243-daf9-4822-80a9-547e4c4d8f52}, !- Electric Equipment Definition Name
  {3febbd26-8e57-4741-90b4-17e303e8d5ab}; !- Space or SpaceType Name

OS:Schedule:Ruleset,
  {3e1e7e5d-e1f0-4962-aefd-a35ded15df42}, ! Handle
  Warehouse Bldg Equip,                   ! Name
  {222ec640-78d1-481e-a712-149a888e76b5}, ! Schedule Type Limits Name
  {d6c0df59-b45e-4668-85a8-fd4be3d2640f}, ! Default Day Schedule Name
  {27998fab-dfed-4c7f-a73e-32994cc21cca}, ! Summer Design Day Schedule Name
  {716d72bf-4d23-479e-8f62-463985f871a9}; ! Winter Design Day Schedule Name

OS:Schedule:Day,
  {d6c0df59-b45e-4668-85a8-fd4be3d2640f}, ! Handle
  Warehouse Bldg Equip Default Schedule,  ! Name
  {222ec640-78d1-481e-a712-149a888e76b5}, ! Schedule Type Limits Name
  ,                                       ! Interpolate to Timestep
  7,                                      !- Hour 1
  0,                                      !- Minute 1
  0.1,                                    !- Value Until Time 1
  8,                                      !- Hour 2
  0,                                      !- Minute 2
  0.5,                                    !- Value Until Time 2
  9,                                      !- Hour 3
  0,                                      !- Minute 3
  0.8,                                    !- Value Until Time 3
  12,                                     !- Hour 4
  0,                                      !- Minute 4
  0.9,                                    !- Value Until Time 4
  13,                                     !- Hour 5
  0,                                      !- Minute 5
  0.8,                                    !- Value Until Time 5
  17,                                     !- Hour 6
  0,                                      !- Minute 6
  0.9,                                    !- Value Until Time 6
  18,                                     !- Hour 7
  0,                                      !- Minute 7
  0.4,                                    !- Value Until Time 7
  24,                                     !- Hour 8
  0,                                      !- Minute 8
  0.1;                                    !- Value Until Time 8

OS:Schedule:Day,
  {27998fab-dfed-4c7f-a73e-32994cc21cca}, ! Handle
  Warehouse Bldg Equip Summer Design Day, ! Name
  {222ec640-78d1-481e-a712-149a888e76b5}, ! Schedule Type Limits Name
  ,                                       ! Interpolate to Timestep
  24,                                     ! Hour 1
  0,                                      ! Minute 1
  1;                                      ! Value Until Time 1

OS:Schedule:Day,
  {716d72bf-4d23-479e-8f62-463985f871a9}, ! Handle
  Warehouse Bldg Equip Winter Design Day, ! Name
  {222ec640-78d1-481e-a712-149a888e76b5}, ! Schedule Type Limits Name
  ,                                       ! Interpolate to Timestep
  24,                                     ! Hour 1
  0,                                      ! Minute 1
  0;                                      ! Value Until Time 1

OS:Schedule:Rule,
  {34e63d4e-4f26-4cba-b9e0-c1926441a2c4}, ! Handle
  Warehouse Bldg Equip Rule 1,            ! Name
  {3e1e7e5d-e1f0-4962-aefd-a35ded15df42}, ! Schedule Ruleset Name
  0,                                      ! Rule Order
  {3ba236a6-5092-4783-9ccf-d2595f783ff1}, ! Day Schedule Name
  Yes,                                    ! Apply Sunday
  No,                                     ! Apply Monday
  No,                                     ! Apply Tuesday
  No,                                     ! Apply Wednesday
  No,                                     ! Apply Thursday
  No,                                     ! Apply Friday
  No,                                     ! Apply Saturday
  ,                                       ! Apply Holiday
  DateRange,                              ! Date Specification Type
  1,                                      ! Start Month
  1,                                      ! Start Day
  12,                                     ! End Month
  31;                                     ! End Day

OS:Schedule:Day,
  {3ba236a6-5092-4783-9ccf-d2595f783ff1}, ! Handle
  Warehouse Bldg Equip Rule 1 Day Schedule, ! Name
  {222ec640-78d1-481e-a712-149a888e76b5}, ! Schedule Type Limits Name
  ,                                       ! Interpolate to Timestep
  24,                                     ! Hour 1
  0,                                      ! Minute 1
  0.10000000000000001;                    ! Value Until Time 1

OS:Schedule:Rule,
  {0c851525-871c-4c58-8ed0-72f76fec49cf}, ! Handle
  Warehouse Bldg Equip Rule 2,            ! Name
  {3e1e7e5d-e1f0-4962-aefd-a35ded15df42}, ! Schedule Ruleset Name
  1,                                      ! Rule Order
  {63c41503-e4e8-48f3-a38f-19253e58fca6}, ! Day Schedule Name
  No,                                     ! Apply Sunday
  No,                                     ! Apply Monday
  No,                                     ! Apply Tuesday
  No,                                     ! Apply Wednesday
  No,                                     ! Apply Thursday
  No,                                     ! Apply Friday
  Yes,                                    ! Apply Saturday
  ,                                       ! Apply Holiday
  DateRange,                              ! Date Specification Type
  1,                                      ! Start Month
  1,                                      ! Start Day
  12,                                     ! End Month
  31;                                     ! End Day

OS:Schedule:Day,
  {63c41503-e4e8-48f3-a38f-19253e58fca6}, ! Handle
  Warehouse Bldg Equip Rule 2 Day Schedule, ! Name
  {222ec640-78d1-481e-a712-149a888e76b5}, ! Schedule Type Limits Name
  ,                                       ! Interpolate to Timestep
  8,                                      ! Hour 1
  0,                                      ! Minute 1
  0.10000000000000001,                    ! Value Until Time 1
  9,                                      ! Hour 2
  0,                                      ! Minute 2
  0.20000000000000001,                    ! Value Until Time 2
  12,                                     ! Hour 3
  0,                                      ! Minute 3
  0.40000000000000002,                    ! Value Until Time 3
  24,                                     ! Hour 4
  0,                                      ! Minute 4
  0.10000000000000001;                    ! Value Until Time 4

OS:Schedule:Ruleset,
  {cec012d2-80db-4411-bd40-6d68739ee478}, ! Handle
  Warehouse HtgSetp BulkStorage,          ! Name
  {dd36db67-8635-41ac-b89f-54a53bded1b4}, ! Schedule Type Limits Name
  {13915af3-0652-44e5-b554-3e346f583350}, ! Default Day Schedule Name
  {342ed8fa-4d80-4b1d-9d7b-ea8d47507351}, ! Summer Design Day Schedule Name
  {1997a273-3bfc-4d37-b083-666b0d8b688e}; ! Winter Design Day Schedule Name

OS:ScheduleTypeLimits,
  {dd36db67-8635-41ac-b89f-54a53bded1b4}, !- Handle
  Temperature 24,                         !- Name
  ,                                       !- Lower Limit Value {BasedOnField A4}
  ,                                       !- Upper Limit Value {BasedOnField A4}
  Continuous,                             !- Numeric Type
  Temperature;                            !- Unit Type

OS:Schedule:Day,
  {13915af3-0652-44e5-b554-3e346f583350}, ! Handle
  Warehouse HtgSetp BulkStorage Default Schedule, ! Name
  {dd36db67-8635-41ac-b89f-54a53bded1b4}, ! Schedule Type Limits Name
  ,                                       ! Interpolate to Timestep
  24,                                     !- Hour 1
  0,                                      !- Minute 1
  7.2;                                    !- Value Until Time 1

OS:Schedule:Day,
  {342ed8fa-4d80-4b1d-9d7b-ea8d47507351}, ! Handle
  Warehouse HtgSetp BulkStorage Summer Design Day, ! Name
  {dd36db67-8635-41ac-b89f-54a53bded1b4}, ! Schedule Type Limits Name
  ,                                       ! Interpolate to Timestep
  24,                                     ! Hour 1
  0,                                      ! Minute 1
  7.2000000000000002;                     ! Value Until Time 1

OS:Schedule:Day,
  {1997a273-3bfc-4d37-b083-666b0d8b688e}, ! Handle
  Warehouse HtgSetp BulkStorage Winter Design Day, ! Name
  {dd36db67-8635-41ac-b89f-54a53bded1b4}, ! Schedule Type Limits Name
  ,                                       ! Interpolate to Timestep
  24,                                     ! Hour 1
  0,                                      ! Minute 1
  7.2000000000000002;                     ! Value Until Time 1

OS:Schedule:Ruleset,
  {9948df10-85c8-46af-9db5-9b447c1948b1}, ! Handle
  Warehouse ClgSetp,                      ! Name
  {dab0a774-1946-4293-ba11-ebfae229f5c2}, ! Schedule Type Limits Name
  {aa80089e-d9b3-40cb-8b14-4d3b8d3e5bab}, ! Default Day Schedule Name
  {7a2f40de-2cf1-4afc-8e22-9d3f1992644a}, ! Summer Design Day Schedule Name
  {7326565e-ebc9-4096-a6e2-88aa8ccee27c}; ! Winter Design Day Schedule Name

OS:ScheduleTypeLimits,
  {dab0a774-1946-4293-ba11-ebfae229f5c2}, !- Handle
  Temperature 46,                         !- Name
  ,                                       !- Lower Limit Value {BasedOnField A4}
  ,                                       !- Upper Limit Value {BasedOnField A4}
  Continuous,                             !- Numeric Type
  Temperature;                            !- Unit Type

OS:Schedule:Day,
  {aa80089e-d9b3-40cb-8b14-4d3b8d3e5bab}, ! Handle
  Warehouse ClgSetp Default Schedule,     ! Name
  {dab0a774-1946-4293-ba11-ebfae229f5c2}, ! Schedule Type Limits Name
  ,                                       ! Interpolate to Timestep
  7,                                      !- Hour 1
  0,                                      !- Minute 1
  30,                                     !- Value Until Time 1
  17,                                     !- Hour 2
  0,                                      !- Minute 2
  24,                                     !- Value Until Time 2
  24,                                     !- Hour 3
  0,                                      !- Minute 3
  30;                                     !- Value Until Time 3

OS:Schedule:Day,
  {7a2f40de-2cf1-4afc-8e22-9d3f1992644a}, ! Handle
  Warehouse ClgSetp Summer Design Day,    ! Name
  {dab0a774-1946-4293-ba11-ebfae229f5c2}, ! Schedule Type Limits Name
  ,                                       ! Interpolate to Timestep
  7,                                      ! Hour 1
  0,                                      ! Minute 1
  30,                                     ! Value Until Time 1
  17,                                     ! Hour 2
  0,                                      ! Minute 2
  24,                                     ! Value Until Time 2
  24,                                     ! Hour 3
  0,                                      ! Minute 3
  30;                                     ! Value Until Time 3

OS:Schedule:Day,
  {7326565e-ebc9-4096-a6e2-88aa8ccee27c}, ! Handle
  Warehouse ClgSetp Winter Design Day,    ! Name
  {dab0a774-1946-4293-ba11-ebfae229f5c2}, ! Schedule Type Limits Name
  ,                                       ! Interpolate to Timestep
  24,                                     ! Hour 1
  0,                                      ! Minute 1
  30;                                     ! Value Until Time 1

OS:Schedule:Rule,
  {8f627eb8-ae47-43d3-9dcf-4572fc69065a}, ! Handle
  Warehouse ClgSetp Rule 1,               ! Name
  {9948df10-85c8-46af-9db5-9b447c1948b1}, ! Schedule Ruleset Name
  0,                                      ! Rule Order
  {e7f810ce-3cdc-4410-99b9-b813aeeefef7}, ! Day Schedule Name
  Yes,                                    ! Apply Sunday
  No,                                     ! Apply Monday
  No,                                     ! Apply Tuesday
  No,                                     ! Apply Wednesday
  No,                                     ! Apply Thursday
  No,                                     ! Apply Friday
  No,                                     ! Apply Saturday
  ,                                       ! Apply Holiday
  DateRange,                              ! Date Specification Type
  1,                                      ! Start Month
  1,                                      ! Start Day
  12,                                     ! End Month
  31;                                     ! End Day

OS:Schedule:Day,
  {e7f810ce-3cdc-4410-99b9-b813aeeefef7}, ! Handle
  Warehouse ClgSetp Rule 1 Day Schedule,  ! Name
  {dab0a774-1946-4293-ba11-ebfae229f5c2}, ! Schedule Type Limits Name
  ,                                       ! Interpolate to Timestep
  24,                                     ! Hour 1
  0,                                      ! Minute 1
  30;                                     ! Value Until Time 1

OS:Schedule:Rule,
  {dcb771c8-db69-4489-b45b-058542485ea4}, ! Handle
  Warehouse ClgSetp Rule 2,               ! Name
  {9948df10-85c8-46af-9db5-9b447c1948b1}, ! Schedule Ruleset Name
  1,                                      ! Rule Order
  {c2a31605-9e4c-4a7b-b135-66d3d219319e}, ! Day Schedule Name
  No,                                     ! Apply Sunday
  No,                                     ! Apply Monday
  No,                                     ! Apply Tuesday
  No,                                     ! Apply Wednesday
  No,                                     ! Apply Thursday
  No,                                     ! Apply Friday
  Yes,                                    ! Apply Saturday
  ,                                       ! Apply Holiday
  DateRange,                              ! Date Specification Type
  1,                                      ! Start Month
  1,                                      ! Start Day
  12,                                     ! End Month
  31;                                     ! End Day

OS:Schedule:Day,
  {c2a31605-9e4c-4a7b-b135-66d3d219319e}, ! Handle
  Warehouse ClgSetp Rule 2 Day Schedule,  ! Name
  {dab0a774-1946-4293-ba11-ebfae229f5c2}, ! Schedule Type Limits Name
  ,                                       ! Interpolate to Timestep