
OS:Version,
  {a243c1ed-1282-4174-adf8-69a2dbab1da9}, !- Handle
  1.3.2;                                  !- Version Identifier

OS:ClimateZones,
  {135edfab-17e7-40db-a436-27d385a8cd6d}, !- Handle
  ,                                       !- Active Institution
  ,                                       !- Active Year
  ASHRAE,                                 !- Climate Zone Institution Name 1
  ANSI/ASHRAE Standard 169,               !- Climate Zone Document Name 1
  2006,                                   !- Climate Zone Document Year 1
  ,                                       !- Climate Zone Value 1
  CEC,                                    !- Climate Zone Institution Name 2
  California Climate Zone Descriptions,   !- Climate Zone Document Name 2
  1995,                                   !- Climate Zone Document Year 2
  ;                                       !- Climate Zone Value 2

OS:YearDescription,
  {513d8dda-86cb-442a-b01c-1f7f0e0ac70e}; !- Handle

OS:RadianceParameters,
  {270a96f1-3c86-4b75-a667-cdf22790e2c8}, !- Handle
  1,                                      !- Accumulated Rays per Record
  0,                                      !- Direct Threshold
  1,                                      !- Direct Certainty
  1,                                      !- Direct Jitter
  1,                                      !- Direct Pretest
  6,                                      !- Ambient Bounces VMX
  2,                                      !- Ambient Bounces DMX
  4050,                                   !- Ambient Divisions VMX
  512,                                    !- Ambient Divisions DMX
  256,                                    !- Ambient Supersamples
  0.001,                                  !- Limit Weight VMX
  0.001,                                  !- Limit Weight DMX
  500,                                    !- Klems Sampling Density
  146;                                    !- Sky Discretization Resolution

OS:SimulationControl,
  {2c487a4c-bac9-4ac5-b669-1e49d9da7c2b}; !- Handle

OS:Sizing:Parameters,
  {dde5af6f-7923-4600-a28a-7556673a0266}, !- Handle
  1.25,                                   !- Heating Sizing Factor
  1.15;                                   !- Cooling Sizing Factor

OS:ProgramControl,
  {05027a99-f2b3-4aeb-afc6-1425fbb4371d}; !- Handle

OS:Timestep,
  {4ebc9f1e-4707-402e-9844-67eb1ffbd522}, !- Handle
  6;                                      !- Number of Timesteps per Hour

OS:OutputControl:ReportingTolerances,
  {65797aa2-06a9-45fe-b69d-bc6e060399d3}; !- Handle

OS:ConvergenceLimits,
  {9fc11aba-8822-4f3d-970c-46391ba4040d}; !- Handle

OS:ShadowCalculation,
  {ca758bea-4416-4626-9bba-3d8795c79bd6}, !- Handle
  7,                                      !- Calculation Frequency
  15000;                                  !- Maximum Figures in Shadow Overlap Calculations

OS:SurfaceConvectionAlgorithm:Inside,
  {aaabfc36-718a-4ab0-b622-f186ebb45230}, !- Handle
  TARP;                                   !- Algorithm

OS:SurfaceConvectionAlgorithm:Outside,
  {9a0a9f6f-4bbd-4b12-a121-9492a1fcd7d6}, !- Handle
  DOE-2;                                  !- Algorithm

OS:HeatBalanceAlgorithm,
  {9d93e563-e1e0-46d7-9e39-d1c8aceb7212}, !- Handle
  ConductionTransferFunction,             !- Algorithm
  200;                                    !- Surface Temperature Upper Limit {F}

OS:ZoneAirHeatBalanceAlgorithm,
  {8520d93e-310f-4696-9bcd-36228bfdd743}, !- Handle
  AnalyticalSolution;                     !- Algorithm

OS:ZoneAirContaminantBalance,
  {eb5fc3ae-fb22-4160-8fcb-3e3b22b000d3}; !- Handle

OS:ZoneCapacitanceMultiplier:ResearchSpecial,
  {4020ce4f-5a7a-4849-8028-8305d7b751b1}, !- Handle
  ,                                       !- Temperature Capacity Multiplier
  ,                                       !- Humidity Capacity Multiplier
  ;                                       !- Carbon Dioxide Capacity Multiplier

OS:RunPeriod,
  {28df894d-6af9-4fb8-8f56-df1753344aa3}, !- Handle
  Run Period 1,                           !- Name
  1,                                      !- Begin Month
  1,                                      !- Begin Day of Month
  12,                                     !- End Month
  31,                                     !- End Day of Month
  ,                                       !- Use Weather File Holidays and Special Days
  ,                                       !- Use Weather File Daylight Saving Period
  ,                                       !- Apply Weekend Holiday Rule
  ,                                       !- Use Weather File Rain Indicators
  ,                                       !- Use Weather File Snow Indicators
  ;                                       !- Number of Times Runperiod to be Repeated

OS:Building,
  {bf305633-c5a1-4881-9edf-ca5e1a8e1274}, !- Handle
  Building 1,                             !- Name
  ,                                       !- Building Sector Type
  ,                                       !- North Axis {deg}
  ,                                       !- Nominal Floor to Floor Height {m}
  ,                                       !- Space Type Name
  {4c196b71-aaab-4654-8aa0-a92a742b7a14}, !- Default Construction Set Name
  ;                                       !- Default Schedule Set Name

OS:SpaceType,
  {12eaa6de-bef5-4651-80e4-cd68d84c9b07}, !- Handle
  DOE Ref 2004 - Retail - Back_Space,     !- Name
  ,                                       !- Default Construction Set Name
  {165ab0e3-f074-4e22-8731-96f734b33320}, !- Default Schedule Set Name
  {760929ad-c4d8-47cc-87f1-1a9f16111ba3}, !- Group Rendering Name
  {58256222-ad05-4892-b000-5de9ad09a39a}, !- Design Specification Outdoor Air Object Name
  Retail,                                 !- Standards Building Type
  Back_Space;                             !- Standards Space Type

OS:Rendering:Color,
  {760929ad-c4d8-47cc-87f1-1a9f16111ba3}, !- Handle
  Rendering Color 1,                      !- Name
  120,                                    !- Rendering Red Value
  149,                                    !- Rendering Green Value
  230;                                    !- Rendering Blue Value

OS:DefaultScheduleSet,
  {165ab0e3-f074-4e22-8731-96f734b33320}, !- Handle
  DOE Ref 2004 - Retail - Back_Space Schedule Set, !- Name
  ,                                       !- Hours of Operation Schedule Name
  {8809134c-1912-41fa-98b4-8698be308755}, !- Number of People Schedule Name
  {80f7187d-4ebe-4267-b2f1-2fe1f64591a8}, !- People Activity Level Schedule Name
  {8eec0532-9ed1-4511-9d60-cb66b9acfbec}, !- Lighting Schedule Name
  {7b1fb515-bc1f-48eb-ae96-e5054f9a439e}, !- Electric Equipment Schedule Name
  ,                                       !- Gas Equipment Schedule Name
  ,                                       !- Hot Water Equipment Schedule Name
  {7eac1706-375b-41a3-8ee0-c5e24e9aec72}, !- Infiltration Schedule Name
  ,                                       !- Steam Equipment Schedule Name
  ;                                       !- Other Equipment Schedule Name

OS:Lights:Definition,
  {abce0af8-8511-49fb-b58c-4ff0f3c24b9d}, !- Handle
  DOE Ref 2004 - Retail - Back_Space Lights Definition, !- Name
  LightingLevel,                          !- Design Level Calculation Method
  60,                                     !- Lighting Level {W}
  ,                                       !- Watts per Space Floor Area {W/m2}
  ;                                       !- Watts per Person {W/person}

OS:Schedule:Ruleset,
  {8eec0532-9ed1-4511-9d60-cb66b9acfbec}, ! Handle
  Retail Bldg Light,                      ! Name
  {94866309-01fe-444e-89a2-1251969ca910}, ! Schedule Type Limits Name
  {b9bbc612-6d60-44d4-b90b-3fa8e43e43df}, ! Default Day Schedule Name
  {9a88d87c-80a1-474e-ae33-593dacb596d6}, ! Summer Design Day Schedule Name
  {11a9df90-8ff5-4569-ba11-6128f264eb62}; ! Winter Design Day Schedule Name

OS:ScheduleTypeLimits,
  {94866309-01fe-444e-89a2-1251969ca910}, ! Handle
  Fraction,                               ! Name
  0,                                      ! Lower Limit Value
  1,                                      ! Upper Limit Value
  CONTINUOUS;                             ! Numeric Type

OS:Schedule:Day,
  {b9bbc612-6d60-44d4-b90b-3fa8e43e43df}, ! Handle
  Retail Bldg Light Default Schedule,     ! Name
  {94866309-01fe-444e-89a2-1251969ca910}, ! Schedule Type Limits Name
  ,                                       ! Interpolate to Timestep
  7,                                      !- Hour 1
  0,                                      !- Minute 1
  0.05,                                   !- Value Until Time 1
  8,                                      !- Hour 2
  0,                                      !- Minute 2
  0.2,                                    !- Value Until Time 2
  9,                                      !- Hour 3
  0,                                      !- Minute 3
  0.5,                                    !- Value Until Time 3
  18,                                     !- Hour 4
  0,                                      !- Minute 4
  0.9,                                    !- Value Until Time 4
  20,                                     !- Hour 5
  0,                                      !- Minute 5
  0.6,                                    !- Value Until Time 5
  21,                                     !- Hour 6
  0,                                      !- Minute 6
  0.5,                                    !- Value Until Time 6
  22,                                     !- Hour 7
  0,                                      !- Minute 7
  0.2,                                    !- Value Until Time 7
  24,                                     !- Hour 8
  0,                                      !- Minute 8
  0.05;                                   !- Value Until Time 8

OS:Schedule:Day,
  {9a88d87c-80a1-474e-ae33-593dacb596d6}, ! Handle
  Retail Bldg Light Summer Design Day,    ! Name
  {94866309-01fe-444e-89a2-1251969ca910}, ! Schedule Type Limits Name
  ,                                       ! Interpolate to Timestep
  24,                                     ! Hour 1
  0,                                      ! Minute 1
  1;                                      ! Value Until Time 1

OS:Schedule:Day,
  {11a9df90-8ff5-4569-ba11-6128f264eb62}, ! Handle
  Retail Bldg Light Winter Design Day,    ! Name
  {94866309-01fe-444e-89a2-1251969ca910}, ! Schedule Type Limits Name
  ,                                       ! Interpolate to Timestep
  24,                                     ! Hour 1
  0,                                      ! Minute 1
  0;                                      ! Value Until Time 1

OS:Schedule:Rule,
  {a2703cb5-9e72-485d-9591-dcd8272fc55a}, ! Handle
  Retail Bldg Light Rule 1,               ! Name
  {8eec0532-9ed1-4511-9d60-cb66b9acfbec}, ! Schedule Ruleset Name
  0,                                      ! Rule Order
  {2d6c0bd7-33ce-4896-a611-d656062c4bc4}, ! Day Schedule Name
  Yes,                                    ! Apply Sunday
  No,                                     ! Apply Monday
  No,                                     ! Apply Tuesday
  No,                                     ! Apply Wednesday
  No,                                     ! Apply Thursday
  No,                                     ! Apply Friday
  No,                                     ! Apply Saturday
  ,                                       ! Apply Holiday
  DateRange,                              ! Date Specification Type
  1,                                      ! Start Month
  1,                                      ! Start Day
  12,                                     ! End Month
  31;                                     ! End Day

OS:Schedule:Day,
  {2d6c0bd7-33ce-4896-a611-d656062c4bc4}, ! Handle
  Retail Bldg Light Rule 1 Day Schedule,  ! Name
  {94866309-01fe-444e-89a2-1251969ca910}, ! Schedule Type Limits Name
  ,                                       ! Interpolate to Timestep
  8,                                      ! Hour 1
  0,                                      ! Minute 1
  0.050000000000000003,                   ! Value Until Time 1
  10,                                     ! Hour 2
  0,                                      ! Minute 2
  0.10000000000000001,                    ! Value Until Time 2
  12,                                     ! Hour 3
  0,                                      ! Minute 3
  0.40000000000000002,                    ! Value Until Time 3
  17,                                     ! Hour 4
  0,                                      ! Minute 4
  0.59999999999999998,                    ! Value Until Time 4
  18,                                     ! Hour 5
  0,                                      ! Minute 5
  0.40000000000000002,                    ! Value Until Time 5
  19,                                     ! Hour 6
  0,                                      ! Minute 6
  0.20000000000000001,                    ! Value Until Time 6
  24,                                     ! Hour 7
  0,                                      ! Minute 7
  0.050000000000000003;                   ! Value Until Time 7

OS:Schedule:Rule,
  {9035c1af-a5ba-4ab5-a492-c3108ab131cb}, ! Handle
  Retail Bldg Light Rule 2,               ! Name
  {8eec0532-9ed1-4511-9d60-cb66b9acfbec}, ! Schedule Ruleset Name
  1,                                      ! Rule Order
  {27673604-f3e8-4907-8531-ba0979d47a93}, ! Day Schedule Name
  No,                                     ! Apply Sunday
  No,                                     ! Apply Monday
  No,                                     ! Apply Tuesday
  No,                                     ! Apply Wednesday
  No,                                     ! Apply Thursday
  No,                                     ! Apply Friday
  Yes,                                    ! Apply Saturday
  ,                                       ! Apply Holiday
  DateRange,                              ! Date Specification Type
  1,                                      ! Start Month
  1,                                      ! Start Day
  12,                                     ! End Month
  31;                                     ! End Day

OS:Schedule:Day,
  {27673604-f3e8-4907-8531-ba0979d47a93}, ! Handle
  Retail Bldg Light Rule 2 Day Schedule,  ! Name
  {94866309-01fe-444e-89a2-1251969ca910}, ! Schedule Type Limits Name
  ,                                       ! Interpolate to Timestep
  7,                                      ! Hour 1
  0,                                      ! Minute 1
  0.050000000000000003,                   ! Value Until Time 1
  8,                                      ! Hour 2
  0,                                      ! Minute 2
  0.10000000000000001,                    ! Value Until Time 2
  9,                                      ! Hour 3
  0,                                      ! Minute 3
  0.29999999999999999,                    ! Value Until Time 3
  10,                                     ! Hour 4
  0,                                      ! Minute 4
  0.59999999999999998,                    ! Value Until Time 4
  18,                                     ! Hour 5
  0,                                      ! Minute 5
  0.90000000000000002,                    ! Value Until Time 5
  19,                                     ! Hour 6
  0,                                      ! Minute 6
  0.5,                                    ! Value Until Time 6
  21,                                     ! Hour 7
  0,                                      ! Minute 7
  0.29999999999999999,                    ! Value Until Time 7
  22,                                     ! Hour 8
  0,                                      ! Minute 8
  0.10000000000000001,                    ! Value Until Time 8
  24,                                     ! Hour 9
  0,                                      ! Minute 9
  0.050000000000000003;                   ! Value Until Time 9

OS:DesignSpecification:OutdoorAir,
  {58256222-ad05-4892-b000-5de9ad09a39a}, !- Handle
  DOE Ref 2004 - Retail - Back_Space Ventilation, !- Name
  Sum,                                    !- Outdoor Air Method
  ,                                       !- Outdoor Air Flow per Person {m3/s-person}
  0.000762,                               !- Outdoor Air Flow per Floor Area {m3/s-m2}
  ,                                       !- Outdoor Air Flow Rate {m3/s}
  ,                                       !- Outdoor Air Flow Air Changes per Hour {1/hr}
  ;                                       !- Outdoor Air Flow Rate Fraction Schedule Name

OS:People:Definition,
  {c555c511-1bd4-459f-8ac6-a37554ca8561}, !- Handle
  DOE Ref 2004 - Retail - Back_Space People Definition, !- Name
  People/Area,                            !- Number of People Calculation Method
  ,                                       !- Number of People {people}
  0.0358438216876434,                     !- People per Space Floor Area {person/m2}
  ,                                       !- Space Floor Area per Person {m2/person}
  0.3;                                    !- Fraction Radiant

OS:People,
  {a7de1d1e-5226-49fb-9768-ead3375b941f}, !- Handle
  DOE Ref 2004 - Retail - Back_Space People, !- Name
  {c555c511-1bd4-459f-8ac6-a37554ca8561}, !- People Definition Name
  {12eaa6de-bef5-4651-80e4-cd68d84c9b07}; !- Space or SpaceType Name

OS:Schedule:Ruleset,
  {8809134c-1912-41fa-98b4-8698be308755}, ! Handle
  Retail Bldg Occ,                        ! Name
  {94866309-01fe-444e-89a2-1251969ca910}, ! Schedule Type Limits Name
  {9c8b6fa8-09ab-4989-b335-a0a332138cc4}, ! Default Day Schedule Name
  {999e06e5-bf13-418a-8273-1d739812bbd5}, ! Summer Design Day Schedule Name
  {781579b7-0961-4174-a55d-f89e13bfb823}; ! Winter Design Day Schedule Name

OS:Schedule:Day,
  {9c8b6fa8-09ab-4989-b335-a0a332138cc4}, ! Handle
  Retail Bldg Occ Default Schedule,       ! Name
  {94866309-01fe-444e-89a2-1251969ca910}, ! Schedule Type Limits Name
  ,                                       ! Interpolate to Timestep
  7,                                      !- Hour 1
  0,                                      !- Minute 1
  0,                                      !- Value Until Time 1
  8,                                      !- Hour 2
  0,                                      !- Minute 2
  0.1,                                    !- Value Until Time 2
  9,                                      !- Hour 3
  0,                                      !- Minute 3
  0.2,                                    !- Value Until Time 3
  11,                                     !- Hour 4
  0,                                      !- Minute 4
  0.5,                                    !- Value Until Time 4
  15,                                     !- Hour 5
  0,                                      !- Minute 5
  0.7,                                    !- Value Until Time 5
  16,                                     !- Hour 6
  0,                                      !- Minute 6
  0.8,                                    !- Value Until Time 6
  17,                                     !- Hour 7
  0,                                      !- Minute 7
  0.7,                                    !- Value Until Time 7
  19,                                     !- Hour 8
  0,                                      !- Minute 8
  0.5,                                    !- Value Until Time 8
  21,                                     !- Hour 9
  0,                                      !- Minute 9
  0.3,                                    !- Value Until Time 9
  24,                                     !- Hour 10
  0,                                      !- Minute 10
  0;                                      !- Value Until Time 10

OS:Schedule:Day,
  {999e06e5-bf13-418a-8273-1d739812bbd5}, ! Handle
  Retail Bldg Occ Summer Design Day,      ! Name
  {94866309-01fe-444e-89a2-1251969ca910}, ! Schedule Type Limits Name
  ,                                       ! Interpolate to Timestep
  24,                                     ! Hour 1
  0,                                      ! Minute 1
  1;                                      ! Value Until Time 1

OS:Schedule:Day,
  {781579b7-0961-4174-a55d-f89e13bfb823}, ! Handle
  Retail Bldg Occ Winter Design Day,      ! Name
  {94866309-01fe-444e-89a2-1251969ca910}, ! Schedule Type Limits Name
  ,                                       ! Interpolate to Timestep
  24,                                     ! Hour 1
  0,                                      ! Minute 1
  1;                                      ! Value Until Time 1

OS:Schedule:Rule,
  {0e8b3cd0-a196-4e44-a2b4-aca9222c2e2c}, ! Handle
  Retail Bldg Occ Rule 1,                 ! Name
  {8809134c-1912-41fa-98b4-8698be308755}, ! Schedule Ruleset Name
  0,                                      ! Rule Order
  {f49013ac-e597-4985-be53-1d1b2d915126}, ! Day Schedule Name
  Yes,                                    ! Apply Sunday
  No,                                     ! Apply Monday
  No,                                     ! Apply Tuesday
  No,                                     ! Apply Wednesday
  No,                                     ! Apply Thursday
  No,                                     ! Apply Friday
  No,                                     ! Apply Saturday
  ,                                       ! Apply Holiday
  DateRange,                              ! Date Specification Type
  1,                                      ! Start Month
  1,                                      ! Start Day
  12,                                     ! End Month
  31;                                     ! End Day

OS:Schedule:Day,
  {f49013ac-e597-4985-be53-1d1b2d915126}, ! Handle
  Retail Bldg Occ Rule 1 Day Schedule,    ! Name
  {94866309-01fe-444e-89a2-1251969ca910}, ! Schedule Type Limits Name
  ,                                       ! Interpolate to Timestep
  9,                                      ! Hour 1
  0,                                      ! Minute 1
  0,                                      ! Value Until Time 1
  10,                                     ! Hour 2
  0,                                      ! Minute 2
  0.10000000000000001,                    ! Value Until Time 2
  12,                                     ! Hour 3
  0,                                      ! Minute 3
  0.20000000000000001,                    ! Value Until Time 3
  17,                                     ! Hour 4
  0,                                      ! Minute 4
  0.40000000000000002,                    ! Value Until Time 4
  18,                                     ! Hour 5
  0,                                      ! Minute 5
  0.20000000000000001,                    ! Value Until Time 5
  19,                                     ! Hour 6
  0,                                      ! Minute 6
  0.10000000000000001,                    ! Value Until Time 6
  24,                                     ! Hour 7
  0,                                      ! Minute 7
  0;                                      ! Value Until Time 7

OS:Schedule:Rule,
  {ae97e741-77c5-439a-bcea-22a3bf5310f1}, ! Handle
  Retail Bldg Occ Rule 2,                 ! Name
  {8809134c-1912-41fa-98b4-8698be308755}, ! Schedule Ruleset Name
  1,                                      ! Rule Order
  {d4f6767d-8011-4749-b09a-6312634ff962}, ! Day Schedule Name
  No,                                     ! Apply Sunday
  No,                                     ! Apply Monday
  No,                                     ! Apply Tuesday
  No,                                     ! Apply Wednesday
  No,                                     ! Apply Thursday
  No,                                     ! Apply Friday
  Yes,                                    ! Apply Saturday
  ,                                       ! Apply Holiday
  DateRange,                              ! Date Specification Type
  1,                                      ! Start Month
  1,                                      ! Start Day
  12,                                     ! End Month
  31;                                     ! End Day

OS:Schedule:Day,
  {d4f6767d-8011-4749-b09a-6312634ff962}, ! Handle
  Retail Bldg Occ Rule 2 Day Schedule,    ! Name
  {94866309-01fe-444e-89a2-1251969ca910}, ! Schedule Type Limits Name
  ,                                       ! Interpolate to Timestep
  7,                                      ! Hour 1
  0,                                      ! Minute 1
  0,                                      ! Value Until Time 1
  8,                                      ! Hour 2
  0,                                      ! Minute 2
  0.10000000000000001,                    ! Value Until Time 2
  9,                                      ! Hour 3
  0,                                      ! Minute 3
  0.20000000000000001,                    ! Value Until Time 3
  10,                                     ! Hour 4
  0,                                      ! Minute 4
  0.5,                                    ! Value Until Time 4
  11,                                     ! Hour 5
  0,                                      ! Minute 5
  0.59999999999999998,                    ! Value Until Time 5
  17,                                     ! Hour 6
  0,                                      ! Minute 6
  0.80000000000000004,                    ! Value Until Time 6
  18,                                     ! Hour 7
  0,                                      ! Minute 7
  0.59999999999999998,                    ! Value Until Time 7
  21,                                     ! Hour 8
  0,                                      ! Minute 8
  0.20000000000000001,                    ! Value Until Time 8
  22,                                     ! Hour 9
  0,                                      ! Minute 9
  0.10000000000000001,                    ! Value Until Time 9
  24,                                     ! Hour 10
  0,                                      ! Minute 10
  0;                                      ! Value Until Time 10

OS:Schedule:Ruleset,
  {80f7187d-4ebe-4267-b2f1-2fe1f64591a8}, ! Handle
  Retail Activity,                        ! Name
  {8fabbad5-f07f-4704-8b78-295070c16508}, ! Schedule Type Limits Name
  {1538a541-2a97-473e-9ce0-6e343953fab3}, ! Default Day Schedule Name
  {93b0b277-5bcd-43ff-98c5-3d2a36f3389e}, ! Summer Design Day Schedule Name
  {45d6ddf2-9bdb-43bf-9667-9e3327eb4a68}; ! Winter Design Day Schedule Name

OS:ScheduleTypeLimits,
  {8fabbad5-f07f-4704-8b78-295070c16508}, !- Handle
  ActivityLevel 11,                       !- Name
  0,                                      !- Lower Limit Value {BasedOnField A4}
  ,                                       !- Upper Limit Value {BasedOnField A4}
  Continuous,                             !- Numeric Type
  ActivityLevel;                          !- Unit Type

OS:Schedule:Day,
  {1538a541-2a97-473e-9ce0-6e343953fab3}, ! Handle
  Retail Activity Default Schedule,       ! Name
  {8fabbad5-f07f-4704-8b78-295070c16508}, ! Schedule Type Limits Name
  ,                                       ! Interpolate to Timestep
  24,                                     !- Hour 1
  0,                                      !- Minute 1
  120;                                    !- Value Until Time 1

OS:Schedule:Day,
  {93b0b277-5bcd-43ff-98c5-3d2a36f3389e}, ! Handle
  Retail Activity Summer Design Day,      ! Name
  {8fabbad5-f07f-4704-8b78-295070c16508}, ! Schedule Type Limits Name
  ,                                       ! Interpolate to Timestep
  24,                                     ! Hour 1
  0,                                      ! Minute 1
  120;                                    ! Value Until Time 1

OS:Schedule:Day,
  {45d6ddf2-9bdb-43bf-9667-9e3327eb4a68}, ! Handle
  Retail Activity Winter Design Day,      ! Name
  {8fabbad5-f07f-4704-8b78-295070c16508}, ! Schedule Type Limits Name
  ,                                       ! Interpolate to Timestep
  24,                                     ! Hour 1
  0,                                      ! Minute 1
  120;                                    ! Value Until Time 1

OS:SpaceInfiltration:DesignFlowRate,
  {012ab69f-11e8-4e56-a24e-e56083750ac5}, !- Handle
  DOE Ref 2004 - Retail - Back_Space Infiltration, !- Name
  {12eaa6de-bef5-4651-80e4-cd68d84c9b07}, !- Space or SpaceType Name
  ,                                       !- Schedule Name
  Flow/ExteriorArea,                      !- Design Flow Rate Calculation Method
  ,                                       !- Design Flow Rate {m3/s}
  ,                                       !- Flow per Space Floor Area {m3/s-m2}
  0.00030226,                             !- Flow per Exterior Surface Area {m3/s-m2}
  ,                                       !- Air Changes per Hour {1/hr}
  ,                                       !- Constant Term Coefficient
  ,                                       !- Temperature Term Coefficient
  ,                                       !- Velocity Term Coefficient
  ;                                       !- Velocity Squared Term Coefficient

OS:Schedule:Ruleset,
  {7eac1706-375b-41a3-8ee0-c5e24e9aec72}, ! Handle
  Retail Infil Half On,                   ! Name
  {94866309-01fe-444e-89a2-1251969ca910}, ! Schedule Type Limits Name
  {7d7ae6d5-abdd-4381-a3ca-20d82ba74042}, ! Default Day Schedule Name
  {5be149d5-8281-4feb-be99-1b97bc193d3c}, ! Summer Design Day Schedule Name
  {7da6e9e9-d14d-449c-877d-363b3947aba7}; ! Winter Design Day Schedule Name

OS:Schedule:Day,
  {7d7ae6d5-abdd-4381-a3ca-20d82ba74042}, ! Handle
  Retail Infil Half On Default Schedule,  ! Name
  {94866309-01fe-444e-89a2-1251969ca910}, ! Schedule Type Limits Name
  ,                                       ! Interpolate to Timestep
  6,                                      !- Hour 1
  0,                                      !- Minute 1
  1,                                      !- Value Until Time 1
  21,                                     !- Hour 2