
OS:Version,
  {a243c1ed-1282-4174-adf8-69a2dbab1da9}, !- Handle
  1.3.2;                                  !- Version Identifier

OS:ClimateZones,
  {135edfab-17e7-40db-a436-27d385a8cd6d}, !- Handle
  ,                                       !- Active Institution
  ,                                       !- Active Year
  ASHRAE,                                 !- Climate Zone Institution Name 1
  ANSI/ASHRAE Standard 169,               !- Climate Zone Document Name 1
  2006,                                   !- Climate Zone Document Year 1
  ,                                       !- Climate Zone Value 1
  CEC,                                    !- Climate Zone Institution Name 2
  California Climate Zone Descriptions,   !- Climate Zone Document Name 2
  1995,                                   !- Climate Zone Document Year 2
  ;                                       !- Climate Zone Value 2

OS:YearDescription,
  {513d8dda-86cb-442a-b01c-1f7f0e0ac70e}; !- Handle

OS:RadianceParameters,
  {270a96f1-3c86-4b75-a667-cdf22790e2c8}, !- Handle
  1,                                      !- Accumulated Rays per Record
  0,                                      !- Direct Threshold
  1,                                      !- Direct Certainty
  1,                                      !- Direct Jitter
  1,                                      !- Direct Pretest
  6,                                      !- Ambient Bounces VMX
  2,                                      !- Ambient Bounces DMX
  4050,                                   !- Ambient Divisions VMX
  512,                                    !- Ambient Divisions DMX
  256,                                    !- Ambient Supersamples
  0.001,                                  !- Limit Weight VMX
  0.001,                                  !- Limit Weight DMX
  500,                                    !- Klems Sampling Density
  146;                                    !- Sky Discretization Resolution

OS:SimulationControl,
  {2c487a4c-bac9-4ac5-b669-1e49d9da7c2b}; !- Handle

OS:Sizing:Parameters,
  {dde5af6f-7923-4600-a28a-7556673a0266}, !- Handle
  1.25,                                   !- Heating Sizing Factor
  1.15;                                   !- Cooling Sizing Factor

OS:ProgramControl,
  {05027a99-f2b3-4aeb-afc6-1425fbb4371d}; !- Handle

OS:Timestep,
  {4ebc9f1e-4707-402e-9844-67eb1ffbd522}, !- Handle
  6;                                      !- Number of Timesteps per Hour

OS:OutputControl:ReportingTolerances,
  {65797aa2-06a9-45fe-b69d-bc6e060399d3}; !- Handle

OS:ConvergenceLimits,
  {9fc11aba-8822-4f3d-970c-46391ba4040d}; !- Handle

OS:ShadowCalculation,
  {ca758bea-4416-4626-9bba-3d8795c79bd6}, !- Handle
  7,                                      !- Calculation Frequency
  15000;                                  !- Maximum Figures in Shadow Overlap Calculations

OS:SurfaceConvectionAlgorithm:Inside,
  {aaabfc36-718a-4ab0-b622-f186ebb45230}, !- Handle
  TARP;                                   !- Algorithm

OS:SurfaceConvectionAlgorithm:Outside,
  {9a0a9f6f-4bbd-4b12-a121-9492a1fcd7d6}, !- Handle
  DOE-2;                                  !- Algorithm

OS:HeatBalanceAlgorithm,
  {9d93e563-e1e0-46d7-9e39-d1c8aceb7212}, !- Handle
  ConductionTransferFunction,             !- Algorithm
  200;                                    !- Surface Temperature Upper Limit {F}

OS:ZoneAirHeatBalanceAlgorithm,
  {8520d93e-310f-4696-9bcd-36228bfdd743}, !- Handle
  AnalyticalSolution;                     !- Algorithm

OS:ZoneAirContaminantBalance,
  {eb5fc3ae-fb22-4160-8fcb-3e3b22b000d3}; !- Handle

OS:ZoneCapacitanceMultiplier:ResearchSpecial,
  {4020ce4f-5a7a-4849-8028-8305d7b751b1}, !- Handle
  ,                                       !- Temperature Capacity Multiplier
  ,                                       !- Humidity Capacity Multiplier
  ;                                       !- Carbon Dioxide Capacity Multiplier

OS:RunPeriod,
  {28df894d-6af9-4fb8-8f56-df1753344aa3}, !- Handle
  Run Period 1,                           !- Name
  1,                                      !- Begin Month
  1,                                      !- Begin Day of Month
  12,                                     !- End Month
  31,                                     !- End Day of Month
  ,                                       !- Use Weather File Holidays and Special Days
  ,                                       !- Use Weather File Daylight Saving Period
  ,                                       !- Apply Weekend Holiday Rule
  ,                                       !- Use Weather File Rain Indicators
  ,                                       !- Use Weather File Snow Indicators
  ;                                       !- Number of Times Runperiod to be Repeated

OS:Building,
  {bf305633-c5a1-4881-9edf-ca5e1a8e1274}, !- Handle
  Building 1,                             !- Name
  ,                                       !- Building Sector Type
  ,                                       !- North Axis {deg}
  ,                                       !- Nominal Floor to Floor Height {m}
  ,                                       !- Space Type Name
  {0b014741-9d49-452c-a56d-44a06d6393dc}, !- Default Construction Set Name
  ;                                       !- Default Schedule Set Name

OS:SpaceType,
  {5f455a52-c208-4842-bcbb-b7fd582e4df9}, !- Handle
  DOE Ref 2004 - MidriseApartment - Apartment, !- Name
  ,                                       !- Default Construction Set Name
  {c27bd912-c7d0-4a03-b235-b28652828271}, !- Default Schedule Set Name
  {2f877d94-9ac3-4787-9512-fb4686d8a29a}, !- Group Rendering Name
  ,                                       !- Design Specification Outdoor Air Object Name
  MidriseApartment,                       !- Standards Building Type
  Apartment;                              !- Standards Space Type

OS:Rendering:Color,
  {2f877d94-9ac3-4787-9512-fb4686d8a29a}, !- Handle
  Rendering Color 1,                      !- Name
  78,                                     !- Rendering Red Value
  167,                                    !- Rendering Green Value
  222;                                    !- Rendering Blue Value

OS:DefaultScheduleSet,
  {c27bd912-c7d0-4a03-b235-b28652828271}, !- Handle
  DOE Ref 2004 - MidriseApartment - Apartment Schedule Set, !- Name
  ,                                       !- Hours of Operation Schedule Name
  {22f0af49-171e-4e18-a693-c94e0ecf85ee}, !- Number of People Schedule Name
  {15d21555-c5ee-4c7f-9f30-0dc2f433532f}, !- People Activity Level Schedule Name
  {2504b0f0-b30e-44b2-9705-853d41d6e096}, !- Lighting Schedule Name
  {5cb64587-634c-4955-bb43-e49d3595f3bf}, !- Electric Equipment Schedule Name
  ,                                       !- Gas Equipment Schedule Name
  ,                                       !- Hot Water Equipment Schedule Name
  {5d5b03c9-98e1-43f3-84cb-a57de3bc4ca7}, !- Infiltration Schedule Name
  ,                                       !- Steam Equipment Schedule Name
  ;                                       !- Other Equipment Schedule Name

OS:Lights:Definition,
  {d67f3fc7-fa1c-4d14-b72d-2df740998645}, !- Handle
  DOE Ref 2004 - MidriseApartment - Apartment Lights Definition, !- Name
  Watts/Area,                             !- Design Level Calculation Method
  ,                                       !- Lighting Level {W}
  11.8403014583807,                       !- Watts per Space Floor Area {W/m2}
  ;                                       !- Watts per Person {W/person}

OS:Lights,
  {7c5cfac4-7860-420d-81d0-6f676f1f301e}, !- Handle
  DOE Ref 2004 - MidriseApartment - Apartment Lights, !- Name
  {d67f3fc7-fa1c-4d14-b72d-2df740998645}, !- Lights Definition Name
  {5f455a52-c208-4842-bcbb-b7fd582e4df9}; !- Space or SpaceType Name

OS:Schedule:Ruleset,
  {2504b0f0-b30e-44b2-9705-853d41d6e096}, ! Handle
  MidriseApartment Apartment Light,       ! Name
  {235428c3-4689-40a2-a2ad-215a12da0c04}, ! Schedule Type Limits Name
  {380032cc-581f-487c-bb42-4a4ee6d56998}, ! Default Day Schedule Name
  {dc4ce103-9fdf-46c8-afb9-2dd41bc23790}, ! Summer Design Day Schedule Name
  {e5e33f88-4d0b-4443-879b-021e0f5f2f1f}; ! Winter Design Day Schedule Name

OS:ScheduleTypeLimits,
  {235428c3-4689-40a2-a2ad-215a12da0c04}, ! Handle
  Fraction,                               ! Name
  0,                                      ! Lower Limit Value
  1,                                      ! Upper Limit Value
  CONTINUOUS;                             ! Numeric Type

OS:Schedule:Day,
  {380032cc-581f-487c-bb42-4a4ee6d56998}, ! Handle
  MidriseApartment Apartment Light Default Schedule, ! Name
  {235428c3-4689-40a2-a2ad-215a12da0c04}, ! Schedule Type Limits Name
  ,                                       ! Interpolate to Timestep
  4,                                      !- Hour 1
  0,                                      !- Minute 1
  0.067,                                  !- Value Until Time 1
  5,                                      !- Hour 2
  0,                                      !- Minute 2
  0.187,                                  !- Value Until Time 2
  6,                                      !- Hour 3
  0,                                      !- Minute 3
  0.394,                                  !- Value Until Time 3
  7,                                      !- Hour 4
  0,                                      !- Minute 4
  0.44,                                   !- Value Until Time 4
  8,                                      !- Hour 5
  0,                                      !- Minute 5
  0.393,                                  !- Value Until Time 5
  9,                                      !- Hour 6
  0,                                      !- Minute 6
  0.172,                                  !- Value Until Time 6
  15,                                     !- Hour 7
  0,                                      !- Minute 7
  0.119,                                  !- Value Until Time 7
  16,                                     !- Hour 8
  0,                                      !- Minute 8
  0.206,                                  !- Value Until Time 8
  17,                                     !- Hour 9
  0,                                      !- Minute 9
  0.439,                                  !- Value Until Time 9
  18,                                     !- Hour 10
  0,                                      !- Minute 10
  0.616,                                  !- Value Until Time 10
  19,                                     !- Hour 11
  0,                                      !- Minute 11
  0.829,                                  !- Value Until Time 11
  20,                                     !- Hour 12
  0,                                      !- Minute 12
  0.986,                                  !- Value Until Time 12
  21,                                     !- Hour 13
  0,                                      !- Minute 13
  1,                                      !- Value Until Time 13
  22,                                     !- Hour 14
  0,                                      !- Minute 14
  0.692,                                  !- Value Until Time 14
  23,                                     !- Hour 15
  0,                                      !- Minute 15
  0.384,                                  !- Value Until Time 15
  24,                                     !- Hour 16
  0,                                      !- Minute 16
  0.16;                                   !- Value Until Time 16

OS:Schedule:Day,
  {dc4ce103-9fdf-46c8-afb9-2dd41bc23790}, ! Handle
  MidriseApartment Apartment Light Summer Design Day, ! Name
  {235428c3-4689-40a2-a2ad-215a12da0c04}, ! Schedule Type Limits Name
  ,                                       ! Interpolate to Timestep
  4,                                      ! Hour 1
  0,                                      ! Minute 1
  0.067000000000000004,                   ! Value Until Time 1
  5,                                      ! Hour 2
  0,                                      ! Minute 2
  0.187,                                  ! Value Until Time 2
  6,                                      ! Hour 3
  0,                                      ! Minute 3
  0.39400000000000002,                    ! Value Until Time 3
  7,                                      ! Hour 4
  0,                                      ! Minute 4
  0.44,                                   ! Value Until Time 4
  8,                                      ! Hour 5
  0,                                      ! Minute 5
  0.39300000000000002,                    ! Value Until Time 5
  9,                                      ! Hour 6
  0,                                      ! Minute 6
  0.17199999999999999,                    ! Value Until Time 6
  15,                                     ! Hour 7
  0,                                      ! Minute 7
  0.11899999999999999,                    ! Value Until Time 7
  16,                                     ! Hour 8
  0,                                      ! Minute 8
  0.20599999999999999,                    ! Value Until Time 8
  17,                                     ! Hour 9
  0,                                      ! Minute 9
  0.439,                                  ! Value Until Time 9
  18,                                     ! Hour 10
  0,                                      ! Minute 10
  0.61599999999999999,                    ! Value Until Time 10
  19,                                     ! Hour 11
  0,                                      ! Minute 11
  0.82899999999999996,                    ! Value Until Time 11
  20,                                     ! Hour 12
  0,                                      ! Minute 12
  0.98599999999999999,                    ! Value Until Time 12
  21,                                     ! Hour 13
  0,                                      ! Minute 13
  1,                                      ! Value Until Time 13
  22,                                     ! Hour 14
  0,                                      ! Minute 14
  0.69199999999999995,                    ! Value Until Time 14
  23,                                     ! Hour 15
  0,                                      ! Minute 15
  0.38400000000000001,                    ! Value Until Time 15
  24,                                     ! Hour 16
  0,                                      ! Minute 16
  0.16;                                   ! Value Until Time 16

OS:Schedule:Day,
  {e5e33f88-4d0b-4443-879b-021e0f5f2f1f}, ! Handle
  MidriseApartment Apartment Light Winter Design Day, ! Name
  {235428c3-4689-40a2-a2ad-215a12da0c04}, ! Schedule Type Limits Name
  ,                                       ! Interpolate to Timestep
  4,                                      ! Hour 1
  0,                                      ! Minute 1
  0.067000000000000004,                   ! Value Until Time 1
  5,                                      ! Hour 2
  0,                                      ! Minute 2
  0.187,                                  ! Value Until Time 2
  6,                                      ! Hour 3
  0,                                      ! Minute 3
  0.39400000000000002,                    ! Value Until Time 3
  7,                                      ! Hour 4
  0,                                      ! Minute 4
  0.44,                                   ! Value Until Time 4
  8,                                      ! Hour 5
  0,                                      ! Minute 5
  0.39300000000000002,                    ! Value Until Time 5
  9,                                      ! Hour 6
  0,                                      ! Minute 6
  0.17199999999999999,                    ! Value Until Time 6
  15,                                     ! Hour 7
  0,                                      ! Minute 7
  0.11899999999999999,                    ! Value Until Time 7
  16,                                     ! Hour 8
  0,                                      ! Minute 8
  0.20599999999999999,                    ! Value Until Time 8
  17,                                     ! Hour 9
  0,                                      ! Minute 9
  0.439,                                  ! Value Until Time 9
  18,                                     ! Hour 10
  0,                                      ! Minute 10
  0.61599999999999999,                    ! Value Until Time 10
  19,                                     ! Hour 11
  0,                                      ! Minute 11
  0.82899999999999996,                    ! Value Until Time 11
  20,                                     ! Hour 12
  0,                                      ! Minute 12
  0.98599999999999999,                    ! Value Until Time 12
  21,                                     ! Hour 13
  0,                                      ! Minute 13
  1,                                      ! Value Until Time 13
  22,                                     ! Hour 14
  0,                                      ! Minute 14
  0.69199999999999995,                    ! Value Until Time 14
  23,                                     ! Hour 15
  0,                                      ! Minute 15
  0.38400000000000001,                    ! Value Until Time 15
  24,                                     ! Hour 16
  0,                                      ! Minute 16
  0.16;                                   ! Value Until Time 16

OS:People:Definition,
  {01162d1a-a8be-4d0c-a4b2-018ed34ded2b}, !- Handle
  DOE Ref 2004 - MidriseApartment - Apartment People Definition, !- Name
  People/Area,                            !- Number of People Calculation Method
  ,                                       !- Number of People {people}
  0.0283090843959466,                     !- People per Space Floor Area {person/m2}
  ,                                       !- Space Floor Area per Person {m2/person}
  0.3;                                    !- Fraction Radiant

OS:People,
  {32024c47-1edc-4d85-8509-253ce92c3bd2}, !- Handle
  DOE Ref 2004 - MidriseApartment - Apartment People, !- Name
  {01162d1a-a8be-4d0c-a4b2-018ed34ded2b}, !- People Definition Name
  {5f455a52-c208-4842-bcbb-b7fd582e4df9}; !- Space or SpaceType Name

OS:Schedule:Ruleset,
  {22f0af49-171e-4e18-a693-c94e0ecf85ee}, ! Handle
  MidriseApartment Apartment Occ,         ! Name
  {235428c3-4689-40a2-a2ad-215a12da0c04}, ! Schedule Type Limits Name
  {7ade0923-bbeb-4654-924f-4fd20e35a5ad}, ! Default Day Schedule Name
  {b429b7db-1199-4a4a-b7a7-4d10462f9885}, ! Summer Design Day Schedule Name
  {eecc9fe3-e009-44e5-a5f0-92aa286e6b7d}; ! Winter Design Day Schedule Name

OS:Schedule:Day,
  {7ade0923-bbeb-4654-924f-4fd20e35a5ad}, ! Handle
  MidriseApartment Apartment Occ Default Schedule, ! Name
  {235428c3-4689-40a2-a2ad-215a12da0c04}, ! Schedule Type Limits Name
  ,                                       ! Interpolate to Timestep
  7,                                      !- Hour 1
  0,                                      !- Minute 1
  1,                                      !- Value Until Time 1
  8,                                      !- Hour 2
  0,                                      !- Minute 2
  0.85,                                   !- Value Until Time 2
  9,                                      !- Hour 3
  0,                                      !- Minute 3
  0.39,                                   !- Value Until Time 3
  16,                                     !- Hour 4
  0,                                      !- Minute 4
  0.25,                                   !- Value Until Time 4
  17,                                     !- Hour 5
  0,                                      !- Minute 5
  0.3,                                    !- Value Until Time 5
  18,                                     !- Hour 6
  0,                                      !- Minute 6
  0.52,                                   !- Value Until Time 6
  21,                                     !- Hour 7
  0,                                      !- Minute 7
  0.87,                                   !- Value Until Time 7
  24,                                     !- Hour 8
  0,                                      !- Minute 8
  1;                                      !- Value Until Time 8

OS:Schedule:Day,
  {b429b7db-1199-4a4a-b7a7-4d10462f9885}, ! Handle
  MidriseApartment Apartment Occ Summer Design Day, ! Name
  {235428c3-4689-40a2-a2ad-215a12da0c04}, ! Schedule Type Limits Name
  ,                                       ! Interpolate to Timestep
  7,                                      ! Hour 1
  0,                                      ! Minute 1
  1,                                      ! Value Until Time 1
  8,                                      ! Hour 2
  0,                                      ! Minute 2
  0.84999999999999998,                    ! Value Until Time 2
  9,                                      ! Hour 3
  0,                                      ! Minute 3
  0.39000000000000001,                    ! Value Until Time 3
  16,                                     ! Hour 4
  0,                                      ! Minute 4
  0.25,                                   ! Value Until Time 4
  17,                                     ! Hour 5
  0,                                      ! Minute 5
  0.29999999999999999,                    ! Value Until Time 5
  18,                                     ! Hour 6
  0,                                      ! Minute 6
  0.52000000000000002,                    ! Value Until Time 6
  21,                                     ! Hour 7
  0,                                      ! Minute 7
  0.87,                                   ! Value Until Time 7
  24,                                     ! Hour 8
  0,                                      ! Minute 8
  1;                                      ! Value Until Time 8

OS:Schedule:Day,
  {eecc9fe3-e009-44e5-a5f0-92aa286e6b7d}, ! Handle
  MidriseApartment Apartment Occ Winter Design Day, ! Name
  {235428c3-4689-40a2-a2ad-215a12da0c04}, ! Schedule Type Limits Name
  ,                                       ! Interpolate to Timestep
  7,                                      ! Hour 1
  0,                                      ! Minute 1
  1,                                      ! Value Until Time 1
  8,                                      ! Hour 2
  0,                                      ! Minute 2
  0.84999999999999998,                    ! Value Until Time 2
  9,                                      ! Hour 3
  0,                                      ! Minute 3
  0.39000000000000001,                    ! Value Until Time 3
  16,                                     ! Hour 4
  0,                                      ! Minute 4
  0.25,                                   ! Value Until Time 4
  17,                                     ! Hour 5
  0,                                      ! Minute 5
  0.29999999999999999,                    ! Value Until Time 5
  18,                                     ! Hour 6
  0,                                      ! Minute 6
  0.52000000000000002,                    ! Value Until Time 6
  21,                                     ! Hour 7
  0,                                      ! Minute 7
  0.87,                                   ! Value Until Time 7
  24,                                     ! Hour 8
  0,                                      ! Minute 8
  1;                                      ! Value Until Time 8

OS:Schedule:Ruleset,
  {15d21555-c5ee-4c7f-9f30-0dc2f433532f}, ! Handle
  MidriseApartment Activity,              ! Name
  {9c98c080-3c14-47d8-8f40-600a8a3f1581}, ! Schedule Type Limits Name
  {c25b1b10-dacb-43b1-accd-6b4672f72492}, ! Default Day Schedule Name
  {1ee869ea-506a-484a-9a39-3566fc32cb2e}, ! Summer Design Day Schedule Name
  {5ccee909-0341-41d6-82fa-61e0343d5aca}; ! Winter Design Day Schedule Name

OS:ScheduleTypeLimits,
  {9c98c080-3c14-47d8-8f40-600a8a3f1581}, !- Handle
  ActivityLevel 1,                        !- Name
  0,                                      !- Lower Limit Value {BasedOnField A4}
  ,                                       !- Upper Limit Value {BasedOnField A4}
  Continuous,                             !- Numeric Type
  ActivityLevel;                          !- Unit Type

OS:Schedule:Day,
  {c25b1b10-dacb-43b1-accd-6b4672f72492}, ! Handle
  MidriseApartment Activity Default Schedule, ! Name
  {9c98c080-3c14-47d8-8f40-600a8a3f1581}, ! Schedule Type Limits Name
  ,                                       ! Interpolate to Timestep
  24,                                     !- Hour 1
  0,                                      !- Minute 1
  120;                                    !- Value Until Time 1

OS:Schedule:Day,
  {1ee869ea-506a-484a-9a39-3566fc32cb2e}, ! Handle
  MidriseApartment Activity Summer Design Day, ! Name
  {9c98c080-3c14-47d8-8f40-600a8a3f1581}, ! Schedule Type Limits Name
  ,                                       ! Interpolate to Timestep
  24,                                     ! Hour 1
  0,                                      ! Minute 1
  120;                                    ! Value Until Time 1

OS:Schedule:Day,
  {5ccee909-0341-41d6-82fa-61e0343d5aca}, ! Handle
  MidriseApartment Activity Winter Design Day, ! Name
  {9c98c080-3c14-47d8-8f40-600a8a3f1581}, ! Schedule Type Limits Name
  ,                                       ! Interpolate to Timestep
  24,                                     ! Hour 1
  0,                                      ! Minute 1
  120;                                    ! Value Until Time 1

OS:SpaceInfiltration:DesignFlowRate,
  {9b537414-9e30-4f83-9443-25fa3c997ef4}, !- Handle
  DOE Ref 2004 - MidriseApartment - Apartment Infiltration, !- Name
  {5f455a52-c208-4842-bcbb-b7fd582e4df9}, !- Space or SpaceType Name
  ,                                       !- Schedule Name
  Flow/ExteriorArea,                      !- Design Flow Rate Calculation Method
  ,                                       !- Design Flow Rate {m3/s}
  ,                                       !- Flow per Space Floor Area {m3/s-m2}
  0.00030226,                             !- Flow per Exterior Surface Area {m3/s-m2}
  ,                                       !- Air Changes per Hour {1/hr}
  ,                                       !- Constant Term Coefficient
  ,                                       !- Temperature Term Coefficient
  ,                                       !- Velocity Term Coefficient
  ;                                       !- Velocity Squared Term Coefficient

OS:Schedule:Ruleset,
  {5d5b03c9-98e1-43f3-84cb-a57de3bc4ca7}, ! Handle
  MidriseApartment Infil,                 ! Name
  {235428c3-4689-40a2-a2ad-215a12da0c04}, ! Schedule Type Limits Name
  {658480db-0854-44f9-b8de-3e3ecd71ecfb}, ! Default Day Schedule Name
  {c64f322a-8e74-4360-b3a3-a6c51afbe8f7}, ! Summer Design Day Schedule Name
  {fe8af7d9-6a76-4556-8dd6-e36f7dc1a937}; ! Winter Design Day Schedule Name

OS:Schedule:Day,
  {658480db-0854-44f9-b8de-3e3ecd71ecfb}, ! Handle
  MidriseApartment Infil Default Schedule, ! Name
  {235428c3-4689-40a2-a2ad-215a12da0c04}, ! Schedule Type Limits Name
  ,                                       ! Interpolate to Timestep
  24,                                     !- Hour 1
  0,                                      !- Minute 1
  1;                                      !- Value Until Time 1

OS:Schedule:Day,
  {c64f322a-8e74-4360-b3a3-a6c51afbe8f7}, ! Handle
  MidriseApartment Infil Summer Design Day, ! Name
  {235428c3-4689-40a2-a2ad-215a12da0c04}, ! Schedule Type Limits Name
  ,                                       ! Interpolate to Timestep
  24,                                     ! Hour 1
  0,                                      ! Minute 1
  1;                                      ! Value Until Time 1

OS:Schedule:Day,
  {fe8af7d9-6a76-4556-8dd6-e36f7dc1a937}, ! Handle
  MidriseApartment Infil Winter Design Day, ! Name
  {235428c3-4689-40a2-a2ad-215a12da0c04}, ! Schedule Type Limits Name
  ,                                       ! Interpolate to Timestep
  24,                                     ! Hour 1
  0,                                      ! Minute 1
  1;                                      ! Value Until Time 1

OS:ElectricEquipment:Definition,
  {9c3674c4-380f-4f36-9973-62f1fb2a6d5d}, !- Handle
  DOE Ref 2004 - MidriseApartment - Apartment Electric Equipment Definition, !- Name
  Watts/Area,                             !- Design Level Calculation Method
  ,                                       !- Design Level {W}
  5.38195520835486,                       !- Watts per Space Floor Area {W/m2}
  ;                                       !- Watts per Person {W/person}

OS:ElectricEquipment,
  {30aa6219-9422-4ea5-9fb1-0685605dc24b}, !- Handle
  DOE Ref 2004 - MidriseApartment - Apartment Electric Equipment, !- Name
  {9c3674c4-380f-4f36-9973-62f1fb2a6d5d}, !- Electric Equipment Definition Name
  {5f455a52-c208-4842-bcbb-b7fd582e4df9}; !- Space or SpaceType Name

OS:Schedule:Ruleset,
  {5cb64587-634c-4955-bb43-e49d3595f3bf}, ! Handle
  MidriseApartment Apartment Equip,       ! Name
  {235428c3-4689-40a2-a2ad-215a12da0c04}, ! Schedule Type Limits Name
  {e8df0631-4ace-408a-bf3d-b7bdf48bad19}, ! Default Day Schedule Name
  {35d260de-d45e-4a56-8d0a-8289ffc1581c}, ! Summer Design Day Schedule Name
  {5622eb17-eed1-4bcd-9d9c-b0f76de8db0c}; ! Winter Design Day Schedule Name

OS:Schedule:Day,
  {e8df0631-4ace-408a-bf3d-b7bdf48bad19}, ! Handle
  MidriseApartment Apartment Equip Default Schedule, ! Name
  {235428c3-4689-40a2-a2ad-215a12da0c04}, ! Schedule Type Limits Name
  ,                                       ! Interpolate to Timestep
  1,                                      !- Hour 1
  0,                                      !- Minute 1
  0.45,                                   !- Value Until Time 1
  2,                                      !- Hour 2
  0,                                      !- Minute 2