
OS:Version,
  {a243c1ed-1282-4174-adf8-69a2dbab1da9}, !- Handle
  1.3.2;                                  !- Version Identifier

OS:ClimateZones,
  {135edfab-17e7-40db-a436-27d385a8cd6d}, !- Handle
  ,                                       !- Active Institution
  ,                                       !- Active Year
  ASHRAE,                                 !- Climate Zone Institution Name 1
  ANSI/ASHRAE Standard 169,               !- Climate Zone Document Name 1
  2006,                                   !- Climate Zone Document Year 1
  ,                                       !- Climate Zone Value 1
  CEC,                                    !- Climate Zone Institution Name 2
  California Climate Zone Descriptions,   !- Climate Zone Document Name 2
  1995,                                   !- Climate Zone Document Year 2
  ;                                       !- Climate Zone Value 2

OS:YearDescription,
  {513d8dda-86cb-442a-b01c-1f7f0e0ac70e}; !- Handle

OS:RadianceParameters,
  {270a96f1-3c86-4b75-a667-cdf22790e2c8}, !- Handle
  1,                                      !- Accumulated Rays per Record
  0,                                      !- Direct Threshold
  1,                                      !- Direct Certainty
  1,                                      !- Direct Jitter
  1,                                      !- Direct Pretest
  6,                                      !- Ambient Bounces VMX
  2,                                      !- Ambient Bounces DMX
  4050,                                   !- Ambient Divisions VMX
  512,                                    !- Ambient Divisions DMX
  256,                                    !- Ambient Supersamples
  0.001,                                  !- Limit Weight VMX
  0.001,                                  !- Limit Weight DMX
  500,                                    !- Klems Sampling Density
  146;                                    !- Sky Discretization Resolution

OS:SimulationControl,
  {2c487a4c-bac9-4ac5-b669-1e49d9da7c2b}; !- Handle

OS:Sizing:Parameters,
  {dde5af6f-7923-4600-a28a-7556673a0266}, !- Handle
  1.25,                                   !- Heating Sizing Factor
  1.15;                                   !- Cooling Sizing Factor

OS:ProgramControl,
  {05027a99-f2b3-4aeb-afc6-1425fbb4371d}; !- Handle

OS:Timestep,
  {4ebc9f1e-4707-402e-9844-67eb1ffbd522}, !- Handle
  6;                                      !- Number of Timesteps per Hour

OS:OutputControl:ReportingTolerances,
  {65797aa2-06a9-45fe-b69d-bc6e060399d3}; !- Handle

OS:ConvergenceLimits,
  {9fc11aba-8822-4f3d-970c-46391ba4040d}; !- Handle

OS:ShadowCalculation,
  {ca758bea-4416-4626-9bba-3d8795c79bd6}, !- Handle
  7,                                      !- Calculation Frequency
  15000;                                  !- Maximum Figures in Shadow Overlap Calculations

OS:SurfaceConvectionAlgorithm:Inside,
  {aaabfc36-718a-4ab0-b622-f186ebb45230}, !- Handle
  TARP;                                   !- Algorithm

OS:SurfaceConvectionAlgorithm:Outside,
  {9a0a9f6f-4bbd-4b12-a121-9492a1fcd7d6}, !- Handle
  DOE-2;                                  !- Algorithm

OS:HeatBalanceAlgorithm,
  {9d93e563-e1e0-46d7-9e39-d1c8aceb7212}, !- Handle
  ConductionTransferFunction,             !- Algorithm
  200;                                    !- Surface Temperature Upper Limit {F}

OS:ZoneAirHeatBalanceAlgorithm,
  {8520d93e-310f-4696-9bcd-36228bfdd743}, !- Handle
  AnalyticalSolution;                     !- Algorithm

OS:ZoneAirContaminantBalance,
  {eb5fc3ae-fb22-4160-8fcb-3e3b22b000d3}; !- Handle

OS:ZoneCapacitanceMultiplier:ResearchSpecial,
  {4020ce4f-5a7a-4849-8028-8305d7b751b1}, !- Handle
  ,                                       !- Temperature Capacity Multiplier
  ,                                       !- Humidity Capacity Multiplier
  ;                                       !- Carbon Dioxide Capacity Multiplier

OS:RunPeriod,
  {28df894d-6af9-4fb8-8f56-df1753344aa3}, !- Handle
  Run Period 1,                           !- Name
  1,                                      !- Begin Month
  1,                                      !- Begin Day of Month
  12,                                     !- End Month
  31,                                     !- End Day of Month
  ,                                       !- Use Weather File Holidays and Special Days
  ,                                       !- Use Weather File Daylight Saving Period
  ,                                       !- Apply Weekend Holiday Rule
  ,                                       !- Use Weather File Rain Indicators
  ,                                       !- Use Weather File Snow Indicators
  ;                                       !- Number of Times Runperiod to be Repeated

OS:Building,
  {bf305633-c5a1-4881-9edf-ca5e1a8e1274}, !- Handle
  Building 1,                             !- Name
  ,                                       !- Building Sector Type
  ,                                       !- North Axis {deg}
  ,                                       !- Nominal Floor to Floor Height {m}
  ,                                       !- Space Type Name
  {e7c3d557-698e-4340-9204-b296cf323996}, !- Default Construction Set Name
  ;                                       !- Default Schedule Set Name

OS:SpaceType,
  {65a00149-5f07-4add-82d0-f909feff0bc5}, !- Handle
  DOE Ref 2004 - Office - BreakRoom,      !- Name
  ,                                       !- Default Construction Set Name
  {2d2fab43-674b-46a4-b74c-bfe6b6855519}, !- Default Schedule Set Name
  {833b4600-36fb-479b-990d-083efb4e6128}, !- Group Rendering Name
  {94754c6b-1f70-49ad-aadd-d7f846fb3e17}, !- Design Specification Outdoor Air Object Name
  Office,                                 !- Standards Building Type
  BreakRoom;                              !- Standards Space Type

OS:Rendering:Color,
  {833b4600-36fb-479b-990d-083efb4e6128}, !- Handle
  Rendering Color 1,                      !- Name
  230,                                    !- Rendering Red Value
  157,                                    !- Rendering Green Value
  120;                                    !- Rendering Blue Value

OS:DefaultScheduleSet,
  {2d2fab43-674b-46a4-b74c-bfe6b6855519}, !- Handle
  DOE Ref 2004 - Office - BreakRoom Schedule Set, !- Name
  ,                                       !- Hours of Operation Schedule Name
  {1c2aefca-6bac-4d55-bd59-9a5077a93933}, !- Number of People Schedule Name
  {3f60f152-0abd-4df5-9f79-b9f91bca60ac}, !- People Activity Level Schedule Name
  {f0ef8aa1-6dd3-4629-b614-e3b61fa11851}, !- Lighting Schedule Name
  {707a7233-49aa-4651-a3c7-044a16f64e8c}, !- Electric Equipment Schedule Name
  ,                                       !- Gas Equipment Schedule Name
  ,                                       !- Hot Water Equipment Schedule Name
  {5aed0539-1ae2-4c19-8a73-0899566e9bf1}, !- Infiltration Schedule Name
  ,                                       !- Steam Equipment Schedule Name
  ;                                       !- Other Equipment Schedule Name

OS:Lights:Definition,
  {f9011ba0-3499-432f-8ba5-08d59c0e4f13}, !- Handle
  DOE Ref 2004 - Office - BreakRoom Lights Definition, !- Name
  Watts/Area,                             !- Design Level Calculation Method
  ,                                       !- Lighting Level {W}
  12.9166925000517,                       !- Watts per Space Floor Area {W/m2}
  ;                                       !- Watts per Person {W/person}

OS:Lights,
  {6bf1a967-541d-4db6-8eb2-0e7216a8db9a}, !- Handle
  DOE Ref 2004 - Office - BreakRoom Lights, !- Name
  {f9011ba0-3499-432f-8ba5-08d59c0e4f13}, !- Lights Definition Name
  {65a00149-5f07-4add-82d0-f909feff0bc5}; !- Space or SpaceType Name

OS:Schedule:Ruleset,
  {f0ef8aa1-6dd3-4629-b614-e3b61fa11851}, ! Handle
  Office Bldg Light,                      ! Name
  {8cf815fa-998a-401e-a58e-da5e6d0d4ce0}, ! Schedule Type Limits Name
  {9f8feab0-4b98-44ca-88ac-f307321b3399}, ! Default Day Schedule Name
  {91fe29f4-f705-493b-8961-ad0a45ddbeee}, ! Summer Design Day Schedule Name
  {22a9c453-b010-4be9-823e-315e335e0864}; ! Winter Design Day Schedule Name

OS:ScheduleTypeLimits,
  {8cf815fa-998a-401e-a58e-da5e6d0d4ce0}, ! Handle
  Fraction,                               ! Name
  0,                                      ! Lower Limit Value
  1,                                      ! Upper Limit Value
  CONTINUOUS;                             ! Numeric Type

OS:Schedule:Day,
  {9f8feab0-4b98-44ca-88ac-f307321b3399}, ! Handle
  Office Bldg Light Default Schedule,     ! Name
  {8cf815fa-998a-401e-a58e-da5e6d0d4ce0}, ! Schedule Type Limits Name
  ,                                       ! Interpolate to Timestep
  5,                                      !- Hour 1
  0,                                      !- Minute 1
  0.05,                                   !- Value Until Time 1
  7,                                      !- Hour 2
  0,                                      !- Minute 2
  0.1,                                    !- Value Until Time 2
  8,                                      !- Hour 3
  0,                                      !- Minute 3
  0.3,                                    !- Value Until Time 3
  17,                                     !- Hour 4
  0,                                      !- Minute 4
  0.9,                                    !- Value Until Time 4
  18,                                     !- Hour 5
  0,                                      !- Minute 5
  0.7,                                    !- Value Until Time 5
  20,                                     !- Hour 6
  0,                                      !- Minute 6
  0.5,                                    !- Value Until Time 6
  22,                                     !- Hour 7
  0,                                      !- Minute 7
  0.3,                                    !- Value Until Time 7
  23,                                     !- Hour 8
  0,                                      !- Minute 8
  0.1,                                    !- Value Until Time 8
  24,                                     !- Hour 9
  0,                                      !- Minute 9
  0.05;                                   !- Value Until Time 9

OS:Schedule:Day,
  {91fe29f4-f705-493b-8961-ad0a45ddbeee}, ! Handle
  Office Bldg Light Summer Design Day,    ! Name
  {8cf815fa-998a-401e-a58e-da5e6d0d4ce0}, ! Schedule Type Limits Name
  ,                                       ! Interpolate to Timestep
  24,                                     ! Hour 1
  0,                                      ! Minute 1
  1;                                      ! Value Until Time 1

OS:Schedule:Day,
  {22a9c453-b010-4be9-823e-315e335e0864}, ! Handle
  Office Bldg Light Winter Design Day,    ! Name
  {8cf815fa-998a-401e-a58e-da5e6d0d4ce0}, ! Schedule Type Limits Name
  ,                                       ! Interpolate to Timestep
  24,                                     ! Hour 1
  0,                                      ! Minute 1
  0;                                      ! Value Until Time 1

OS:Schedule:Rule,
  {43445195-f0da-475c-91fe-a4520688a027}, ! Handle
  Office Bldg Light Rule 1,               ! Name
  {f0ef8aa1-6dd3-4629-b614-e3b61fa11851}, ! Schedule Ruleset Name
  0,                                      ! Rule Order
  {29b5f389-9351-4572-ba6b-3da62a61939f}, ! Day Schedule Name
  Yes,                                    ! Apply Sunday
  No,                                     ! Apply Monday
  No,                                     ! Apply Tuesday
  No,                                     ! Apply Wednesday
  No,                                     ! Apply Thursday
  No,                                     ! Apply Friday
  No,                                     ! Apply Saturday
  ,                                       ! Apply Holiday
  DateRange,                              ! Date Specification Type
  1,                                      ! Start Month
  1,                                      ! Start Day
  12,                                     ! End Month
  31;                                     ! End Day

OS:Schedule:Day,
  {29b5f389-9351-4572-ba6b-3da62a61939f}, ! Handle
  Office Bldg Light Rule 1 Day Schedule,  ! Name
  {8cf815fa-998a-401e-a58e-da5e6d0d4ce0}, ! Schedule Type Limits Name
  ,                                       ! Interpolate to Timestep
  24,                                     ! Hour 1
  0,                                      ! Minute 1
  0.050000000000000003;                   ! Value Until Time 1

OS:Schedule:Rule,
  {9ccb4255-2611-4fa1-9846-1d80b4752f91}, ! Handle
  Office Bldg Light Rule 2,               ! Name
  {f0ef8aa1-6dd3-4629-b614-e3b61fa11851}, ! Schedule Ruleset Name
  1,                                      ! Rule Order
  {aea1dbee-f243-4a66-bd86-746a5c4be58d}, ! Day Schedule Name
  No,                                     ! Apply Sunday
  No,                                     ! Apply Monday
  No,                                     ! Apply Tuesday
  No,                                     ! Apply Wednesday
  No,                                     ! Apply Thursday
  No,                                     ! Apply Friday
  Yes,                                    ! Apply Saturday
  ,                                       ! Apply Holiday
  DateRange,                              ! Date Specification Type
  1,                                      ! Start Month
  1,                                      ! Start Day
  12,                                     ! End Month
  31;                                     ! End Day

OS:Schedule:Day,
  {aea1dbee-f243-4a66-bd86-746a5c4be58d}, ! Handle
  Office Bldg Light Rule 2 Day Schedule,  ! Name
  {8cf815fa-998a-401e-a58e-da5e6d0d4ce0}, ! Schedule Type Limits Name
  ,                                       ! Interpolate to Timestep
  6,                                      ! Hour 1
  0,                                      ! Minute 1
  0.050000000000000003,                   ! Value Until Time 1
  8,                                      ! Hour 2
  0,                                      ! Minute 2
  0.10000000000000001,                    ! Value Until Time 2
  14,                                     ! Hour 3
  0,                                      ! Minute 3
  0.5,                                    ! Value Until Time 3
  17,                                     ! Hour 4
  0,                                      ! Minute 4
  0.14999999999999999,                    ! Value Until Time 4
  24,                                     ! Hour 5
  0,                                      ! Minute 5
  0.050000000000000003;                   ! Value Until Time 5

OS:DesignSpecification:OutdoorAir,
  {94754c6b-1f70-49ad-aadd-d7f846fb3e17}, !- Handle
  DOE Ref 2004 - Office - BreakRoom Ventilation, !- Name
  Sum,                                    !- Outdoor Air Method
  0.007079211648,                         !- Outdoor Air Flow per Person {m3/s-person}
  ,                                       !- Outdoor Air Flow per Floor Area {m3/s-m2}
  ,                                       !- Outdoor Air Flow Rate {m3/s}
  ,                                       !- Outdoor Air Flow Air Changes per Hour {1/hr}
  ;                                       !- Outdoor Air Flow Rate Fraction Schedule Name

OS:People:Definition,
  {3d0b23c2-f568-4845-9fc2-1b0984bb5f96}, !- Handle
  DOE Ref 2004 - Office - BreakRoom People Definition, !- Name
  People/Area,                            !- Number of People Calculation Method
  ,                                       !- Number of People {people}
  0.538195520835486,                      !- People per Space Floor Area {person/m2}
  ,                                       !- Space Floor Area per Person {m2/person}
  0.3;                                    !- Fraction Radiant

OS:People,
  {adc44363-c7af-4e34-8928-7d0c0159ab60}, !- Handle
  DOE Ref 2004 - Office - BreakRoom People, !- Name
  {3d0b23c2-f568-4845-9fc2-1b0984bb5f96}, !- People Definition Name
  {65a00149-5f07-4add-82d0-f909feff0bc5}; !- Space or SpaceType Name

OS:Schedule:Ruleset,
  {1c2aefca-6bac-4d55-bd59-9a5077a93933}, ! Handle
  Office Misc Occ,                        ! Name
  {8cf815fa-998a-401e-a58e-da5e6d0d4ce0}, ! Schedule Type Limits Name
  {ee190fc0-6b4c-43db-9541-8872911229be}, ! Default Day Schedule Name
  {c6f0ed63-639f-4efe-9d7b-c6bf0df73e16}, ! Summer Design Day Schedule Name
  {eba95723-6759-4067-8d46-1766fe24548b}; ! Winter Design Day Schedule Name

OS:Schedule:Day,
  {ee190fc0-6b4c-43db-9541-8872911229be}, ! Handle
  Office Bldg Occ Default Schedule 1,     ! Name
  {8cf815fa-998a-401e-a58e-da5e6d0d4ce0}, ! Schedule Type Limits Name
  ,                                       ! Interpolate to Timestep
  6,                                      !- Hour 1
  0,                                      !- Minute 1
  0,                                      !- Value Until Time 1
  7,                                      !- Hour 2
  0,                                      !- Minute 2
  0.100000001490116,                      !- Value Until Time 2
  8,                                      !- Hour 3
  0,                                      !- Minute 3
  0.200000002980232,                      !- Value Until Time 3
  20,                                     !- Hour 4
  0,                                      !- Minute 4
  0.400000005960464,                      !- Value Until Time 4
  22,                                     !- Hour 5
  0,                                      !- Minute 5
  0.100000001490116,                      !- Value Until Time 5
  24,                                     !- Hour 6
  0,                                      !- Minute 6
  0.0500000007450581;                     !- Value Until Time 6

OS:Schedule:Day,
  {c6f0ed63-639f-4efe-9d7b-c6bf0df73e16}, ! Handle
  Office Bldg Occ Summer Design Day 1,    ! Name
  {8cf815fa-998a-401e-a58e-da5e6d0d4ce0}, ! Schedule Type Limits Name
  ,                                       ! Interpolate to Timestep
  6,                                      ! Hour 1
  0,                                      ! Minute 1
  0,                                      ! Value Until Time 1
  22,                                     ! Hour 2
  0,                                      ! Minute 2
  1,                                      ! Value Until Time 2
  24,                                     ! Hour 3
  0,                                      ! Minute 3
  0.050000000000000003;                   ! Value Until Time 3

OS:Schedule:Day,
  {eba95723-6759-4067-8d46-1766fe24548b}, ! Handle
  Office Bldg Occ Winter Design Day 1,    ! Name
  {8cf815fa-998a-401e-a58e-da5e6d0d4ce0}, ! Schedule Type Limits Name
  ,                                       ! Interpolate to Timestep
  24,                                     ! Hour 1
  0,                                      ! Minute 1
  0;                                      ! Value Until Time 1

OS:Schedule:Rule,
  {4976baf5-f806-46bf-bb2e-8efcb23d64aa}, ! Handle
  Office Misc Occ Rule 1,                 ! Name
  {1c2aefca-6bac-4d55-bd59-9a5077a93933}, ! Schedule Ruleset Name
  0,                                      ! Rule Order
  {b6707f79-9e30-4675-876b-c8bb2eb94625}, ! Day Schedule Name
  Yes,                                    ! Apply Sunday
  No,                                     ! Apply Monday
  No,                                     ! Apply Tuesday
  No,                                     ! Apply Wednesday
  No,                                     ! Apply Thursday
  No,                                     ! Apply Friday
  No,                                     ! Apply Saturday
  ,                                       ! Apply Holiday
  DateRange,                              ! Date Specification Type
  1,                                      ! Start Month
  1,                                      ! Start Day
  12,                                     ! End Month
  31;                                     ! End Day

OS:Schedule:Day,
  {b6707f79-9e30-4675-876b-c8bb2eb94625}, ! Handle
  Office Bldg Occ Rule 1 Day Schedule 1,  ! Name
  {8cf815fa-998a-401e-a58e-da5e6d0d4ce0}, ! Schedule Type Limits Name
  ,                                       ! Interpolate to Timestep
  24,                                     ! Hour 1
  0,                                      ! Minute 1
  0;                                      ! Value Until Time 1

OS:Schedule:Rule,
  {245d70bc-48d4-47e5-877d-aa77cd1b1551}, ! Handle
  Office Misc Occ Rule 2,                 ! Name
  {1c2aefca-6bac-4d55-bd59-9a5077a93933}, ! Schedule Ruleset Name
  1,                                      ! Rule Order
  {19b404b1-0fb3-47ff-8383-a4b9fb91d6dd}, ! Day Schedule Name
  No,                                     ! Apply Sunday
  No,                                     ! Apply Monday
  No,                                     ! Apply Tuesday
  No,                                     ! Apply Wednesday
  No,                                     ! Apply Thursday
  No,                                     ! Apply Friday
  Yes,                                    ! Apply Saturday
  ,                                       ! Apply Holiday
  DateRange,                              ! Date Specification Type
  1,                                      ! Start Month
  1,                                      ! Start Day
  12,                                     ! End Month
  31;                                     ! End Day

OS:Schedule:Day,
  {19b404b1-0fb3-47ff-8383-a4b9fb91d6dd}, ! Handle
  Office Bldg Occ Rule 2 Day Schedule 1,  ! Name
  {8cf815fa-998a-401e-a58e-da5e6d0d4ce0}, ! Schedule Type Limits Name
  ,                                       ! Interpolate to Timestep
  6,                                      !- Hour 1
  0,                                      !- Minute 1
  0,                                      !- Value Until Time 1
  8,                                      !- Hour 2
  0,                                      !- Minute 2
  0.100000001490116,                      !- Value Until Time 2
  14,                                     !- Hour 3
  0,                                      !- Minute 3
  0.25,                                   !- Value Until Time 3
  17,                                     !- Hour 4
  0,                                      !- Minute 4
  0.100000001490116,                      !- Value Until Time 4
  24,                                     !- Hour 5
  0,                                      !- Minute 5
  0;                                      !- Value Until Time 5

OS:Schedule:Ruleset,
  {3f60f152-0abd-4df5-9f79-b9f91bca60ac}, ! Handle
  Office Activity,                        ! Name
  {33044deb-940d-43de-a12f-5ef031bd82d2}, ! Schedule Type Limits Name
  {03bfabcf-a47d-412a-80e4-a549addb98cf}, ! Default Day Schedule Name
  {707edb20-b80d-473c-8b96-fe569641308b}, ! Summer Design Day Schedule Name
  {f58558eb-5269-4c43-aa04-871c17594a5e}; ! Winter Design Day Schedule Name

OS:ScheduleTypeLimits,
  {33044deb-940d-43de-a12f-5ef031bd82d2}, !- Handle
  ActivityLevel,                          !- Name
  0,                                      !- Lower Limit Value {BasedOnField A4}
  ,                                       !- Upper Limit Value {BasedOnField A4}
  Continuous,                             !- Numeric Type
  ActivityLevel;                          !- Unit Type

OS:Schedule:Day,
  {03bfabcf-a47d-412a-80e4-a549addb98cf}, ! Handle
  Office Activity Default Schedule,       ! Name
  {33044deb-940d-43de-a12f-5ef031bd82d2}, ! Schedule Type Limits Name
  ,                                       ! Interpolate to Timestep
  24,                                     !- Hour 1
  0,                                      !- Minute 1
  132;                                    !- Value Until Time 1

OS:Schedule:Day,
  {707edb20-b80d-473c-8b96-fe569641308b}, ! Handle
  Office Activity Summer Design Day,      ! Name
  {33044deb-940d-43de-a12f-5ef031bd82d2}, ! Schedule Type Limits Name
  ,                                       ! Interpolate to Timestep
  24,                                     !- Hour 1
  0,                                      !- Minute 1
  132;                                    !- Value Until Time 1

OS:Schedule:Day,
  {f58558eb-5269-4c43-aa04-871c17594a5e}, ! Handle
  Office Activity Winter Design Day,      ! Name
  {33044deb-940d-43de-a12f-5ef031bd82d2}, ! Schedule Type Limits Name
  ,                                       ! Interpolate to Timestep
  24,                                     !- Hour 1
  0,                                      !- Minute 1
  132;                                    !- Value Until Time 1

OS:SpaceInfiltration:DesignFlowRate,
  {7d301d3b-a1c2-4443-9b46-a6e368b8cd1b}, !- Handle
  DOE Ref 2004 - Office - BreakRoom Infiltration, !- Name
  {65a00149-5f07-4add-82d0-f909feff0bc5}, !- Space or SpaceType Name
  ,                                       !- Schedule Name
  Flow/ExteriorArea,                      !- Design Flow Rate Calculation Method
  ,                                       !- Design Flow Rate {m3/s}
  ,                                       !- Flow per Space Floor Area {m3/s-m2}
  0.00030226,                             !- Flow per Exterior Surface Area {m3/s-m2}
  ,                                       !- Air Changes per Hour {1/hr}
  ,                                       !- Constant Term Coefficient
  ,                                       !- Temperature Term Coefficient
  ,                                       !- Velocity Term Coefficient
  ;                                       !- Velocity Squared Term Coefficient

OS:Schedule:Ruleset,
  {5aed0539-1ae2-4c19-8a73-0899566e9bf1}, ! Handle
  Office Infil Quarter On,                ! Name
  {8cf815fa-998a-401e-a58e-da5e6d0d4ce0}, ! Schedule Type Limits Name
  {c3485052-8190-4a3f-aa76-e340b47a4207}, ! Default Day Schedule Name
  {d784df79-b625-40c9-9644-63651e28486a}, ! Summer Design Day Schedule Name
  {e22ada90-6b13-489b-af13-0199f081482e}; ! Winter Design Day Schedule Name

OS:Schedule:Day,
  {c3485052-8190-4a3f-aa76-e340b47a4207}, ! Handle
  Office Infil Quarter On Default Schedule, ! Name
  {8cf815fa-998a-401e-a58e-da5e6d0d4ce0}, ! Schedule Type Limits Name
  ,                                       ! Interpolate to Timestep
  6,                                      !- Hour 1
  0,                                      !- Minute 1
  1,                                      !- Value Until Time 1
  22,                                     !- Hour 2
  0,                                      !- Minute 2
  0.25,                                   !- Value Until Time 2
  24,                                     !- Hour 3
  0,                                      !- Minute 3
  1;                                      !- Value Until Time 3

OS:Schedule:Day,
  {d784df79-b625-40c9-9644-63651e28486a}, ! Handle
  Office Infil Quarter On Summer Design Day, ! Name
  {8cf815fa-998a-401e-a58e-da5e6d0d4ce0}, ! Schedule Type Limits Name
  ,                                       ! Interpolate to Timestep
  6,                                      ! Hour 1
  0,                                      ! Minute 1
  1,                                      ! Value Until Time 1
  22,                                     ! Hour 2
  0,                                      ! Minute 2
  0.25,                                   ! Value Until Time 2
  24,                                     ! Hour 3
  0,                                      ! Minute 3
  1;                                      ! Value Until Time 3

OS:Schedule:Day,
  {e22ada90-6b13-489b-af13-0199f081482e}, ! Handle
  Office Infil Quarter On Winter Design Day, ! Name
  {8cf815fa-998a-401e-a58e-da5e6d0d4ce0}, ! Schedule Type Limits Name
  ,                                       ! Interpolate to Timestep
  6,                                      ! Hour 1
  0,                                      ! Minute 1
  1,                                      ! Value Until Time 1
  18,                                     ! Hour 2
  0,                                      ! Minute 2
  0.25,                                   ! Value Until Time 2
  24,                                     ! Hour 3
  0,                                      ! Minute 3
  1;                                      ! Value Until Time 3

OS:Schedule:Rule,
  {9aa022e3-dd3b-4ab0-9323-cfbff0ce8ad0}, ! Handle
  Office Infil Quarter On Rule 1,         ! Name
  {5aed0539-1ae2-4c19-8a73-0899566e9bf1}, ! Schedule Ruleset Name
  0,                                      ! Rule Order
  {42a99869-bad6-48f4-b7f4-449a44794a06}, ! Day Schedule Name
  Yes,                                    ! Apply Sunday
  No,                                     ! Apply Monday
  No,                                     ! Apply Tuesday
  No,                                     ! Apply Wednesday
  No,                                     ! Apply Thursday
  No,                                     ! Apply Friday
  No,                                     ! Apply Saturday
  ,                                       ! Apply Holiday
  DateRange,                              ! Date Specification Type
  1,                                      ! Start Month
  1,                                      ! Start Day
  12,                                     ! End Month
  31;                                     ! End Day

OS:Schedule:Day,
  {42a99869-bad6-48f4-b7f4-449a44794a06}, ! Handle
  Office Infil Quarter On Rule 1 Day Schedule, ! Name
  {8cf815fa-998a-401e-a58e-da5e6d0d4ce0}, ! Schedule Type Limits Name
  ,                                       ! Interpolate to Timestep
  24,                                     ! Hour 1
  0,                                      ! Minute 1
  1;                                      ! Value Until Time 1

OS:Schedule:Rule,
  {032c7deb-2a53-48e3-bb02-dd1aed685325}, ! Handle
  Office Infil Quarter On Rule 2,         ! Name