
OS:Version,
  {351f83ab-db38-4168-9e4d-37fc88f2e080}, !- Handle
  1.2.4;                                  !- Version Identifier

OS:ScheduleTypeLimits,
  {9399d485-52f3-46dd-aed7-20e25c043301}, !- Handle
  Lights Schedule Type Limits,            !- Name
  0,                                      !- Lower Limit Value {BasedOnField A4}
  1,                                      !- Upper Limit Value {BasedOnField A4}
  Continuous,                             !- Numeric Type
  Dimensionless;                          !- Unit Type

OS:ScheduleTypeLimits,
  {a3ec3ece-a4d4-4654-a1ed-ab0f5d88a4f4}, !- Handle
  Occupancy Schedule Type Limits,         !- Name
  0,                                      !- Lower Limit Value {BasedOnField A4}
  1,                                      !- Upper Limit Value {BasedOnField A4}
  Continuous,                             !- Numeric Type
  Dimensionless;                          !- Unit Type

OS:ScheduleTypeLimits,
  {4bf39be0-4749-4cac-801e-cee1806ae6da}, !- Handle
  People Activity Type Limits,            !- Name
  0,                                      !- Lower Limit Value {BasedOnField A4}
  ,                                       !- Upper Limit Value {BasedOnField A4}
  Continuous,                             !- Numeric Type
  ActivityLevel;                          !- Unit Type

OS:ScheduleTypeLimits,
  {507e98be-c67e-496f-9389-208c1826f4f8}, !- Handle
  Equipment Schedule Type Limits,         !- Name
  0,                                      !- Lower Limit Value {BasedOnField A4}
  1,                                      !- Upper Limit Value {BasedOnField A4}
  Continuous,                             !- Numeric Type
  Dimensionless;                          !- Unit Type

OS:ScheduleTypeLimits,
  {d7e1d515-e7a8-4699-b733-4c4c0de6a43b}, !- Handle
  Water Use Schedule Type Limits,         !- Name
  0,                                      !- Lower Limit Value {BasedOnField A4}
  1,                                      !- Upper Limit Value {BasedOnField A4}
  Continuous,                             !- Numeric Type
  Dimensionless;                          !- Unit Type

OS:ScheduleTypeLimits,
  {71e267ec-cf8f-4595-ba01-983ea5b78158}, !- Handle
  Elevators Schedule Type Limits,         !- Name
  0,                                      !- Lower Limit Value {BasedOnField A4}
  1,                                      !- Upper Limit Value {BasedOnField A4}
  Continuous,                             !- Numeric Type
  Dimensionless;                          !- Unit Type

OS:ScheduleTypeLimits,
  {bdef058e-53fb-4047-a933-6f0d2b739afc}, !- Handle
  Process Loads Schedule Type Limits,     !- Name
  0,                                      !- Lower Limit Value {BasedOnField A4}
  1,                                      !- Upper Limit Value {BasedOnField A4}
  Continuous,                             !- Numeric Type
  Dimensionless;                          !- Unit Type

OS:ScheduleTypeLimits,
  {23f8b34b-7dd2-4813-8038-620fe5aa799b}, !- Handle
  Thermostat Heating Setpoint Schedule Type Limits, !- Name
  0,                                      !- Lower Limit Value {BasedOnField A4}
  100,                                    !- Upper Limit Value {BasedOnField A4}
  Continuous,                             !- Numeric Type
  Temperature;                            !- Unit Type

OS:ScheduleTypeLimits,
  {2acded94-e328-4963-b41d-7520bc840501}, !- Handle
  Thermostat Cooling Setpoint Schedule Type Limits, !- Name
  0,                                      !- Lower Limit Value {BasedOnField A4}
  100,                                    !- Upper Limit Value {BasedOnField A4}
  Continuous,                             !- Numeric Type
  Temperature;                            !- Unit Type

OS:ScheduleTypeLimits,
  {6211c392-9f6d-460d-90c2-ba8d6aa3a10a}, !- Handle
  HVAC Operation Schedule Type Limits,    !- Name
  0,                                      !- Lower Limit Value {BasedOnField A4}
  1,                                      !- Upper Limit Value {BasedOnField A4}
  Discrete,                               !- Numeric Type
  Availability;                           !- Unit Type

OS:Material:AirWall,
  {afaea8d3-d4dc-4a00-969e-52cd368c5670}, !- Handle
  Material Air Wall 1;                    !- Name

OS:Construction,
  {8fe7e8a0-f022-433e-a3b7-312bd07527a4}, !- Handle
  Construction 1,                         !- Name
  ,                                       !- Surface Rendering Name
  {afaea8d3-d4dc-4a00-969e-52cd368c5670}; !- Layer 1

OS:Construction,
  {ec07da0d-67b9-4734-a9f0-87c4b644d189}, !- Handle
  SLAB-ON-GRADE-FLOOR,                    !- Name
  ,                                       !- Surface Rendering Name
  {2566ae92-2058-4872-88a2-b867d2023367}; !- Layer 1

OS:Material,
  {2566ae92-2058-4872-88a2-b867d2023367}, !- Handle
  Heavyweight Concrete - 8 in. - 140 lb/ft3, ! Name
  MediumRough,                            ! Roughness
  0.2032,                                 ! Thickness {m}
  1.95,                                   ! Conductivity {W/m-K}
  2242.58487235442,                       ! Density {kg/m3}
  900;                                    ! Specific Heat {J/kg-K}

OS:ComponentData,
  {9db91a13-b6c8-4eda-8d8e-b5561ffff50f}, !- Handle
  OS:ComponentData 1,                     !- Name
  {3fcc465d-ebbc-45e6-8a58-3ecfc08f6990}, !- UUID
  {54c81117-769d-40f8-add8-f63aaa75e2b1}, !- Version UUID
  ,                                       !- Creation Timestamp
  ,                                       !- Version Timestamp
  {2566ae92-2058-4872-88a2-b867d2023367}; !- Name of Object 1

OS:Construction,
  {8e5e16a3-f591-4d2c-b00d-4da8e113db07}, !- Handle
  INTERIOR-WALL,                          !- Name
  ,                                       !- Surface Rendering Name
  {e70b7f29-24c1-40fa-bbcc-aebb098a8977}; !- Layer 1

OS:Material,
  {e70b7f29-24c1-40fa-bbcc-aebb098a8977}, !- Handle
  Concrete Block - 10 in. - 105 lb/ft3 - Solid Grouted, ! Name
  MediumRough,                            ! Roughness
  0.254,                                  ! Thickness {m}
  1.2259370553464,                        ! Conductivity {W/m-K}
  1681.93865426581,                       ! Density {kg/m3}
  976.122514285714;                       ! Specific Heat {J/kg-K}

OS:ComponentData,
  {b7bb27e9-7a6d-4f9f-8cdc-8017087d9575}, !- Handle
  OS:ComponentData 2,                     !- Name
  {ea0fe2d7-c22f-453c-9650-b95075da5428}, !- UUID
  {62a565cd-59b2-471c-ba11-a8c72e03fe5f}, !- Version UUID
  ,                                       !- Creation Timestamp
  ,                                       !- Version Timestamp
  {e70b7f29-24c1-40fa-bbcc-aebb098a8977}; !- Name of Object 1

OS:Construction,
  {1f1daa1a-f1e0-4d2d-8995-be4ff3964deb}, !- Handle
  INTERIOR-FLOOR,                         !- Name
  ,                                       !- Surface Rendering Name
  {89441b74-bf58-4ff8-abd2-b3d8ed9ea34c}, !- Layer 1
  {4571b19f-06b4-438d-a474-9c89ecaf0492}; !- Layer 2

OS:Material,
  {89441b74-bf58-4ff8-abd2-b3d8ed9ea34c}, !- Handle
  Carpet - 1/2 in.,                       ! Name
  MediumRough,                            ! Roughness
  0.0127,                                 ! Thickness {m}
  0.06,                                   ! Conductivity {W/m-K}
  288,                                    ! Density {kg/m3}
  1380;                                   ! Specific Heat {J/kg-K}

OS:ComponentData,
  {ea1cb5b1-1575-4550-b97f-409d350efaf6}, !- Handle
  OS:ComponentData 3,                     !- Name
  {f135dc61-c030-48c2-bcfd-bf2f1e84db95}, !- UUID
  {27d4cac7-02d9-440d-bc68-55fc405ad9f8}, !- Version UUID
  ,                                       !- Creation Timestamp
  ,                                       !- Version Timestamp
  {89441b74-bf58-4ff8-abd2-b3d8ed9ea34c}; !- Name of Object 1

OS:Material,
  {4571b19f-06b4-438d-a474-9c89ecaf0492}, !- Handle
  Lightweight Concrete - 6 in. - 80 lb/ft3, ! Name
  MediumRough,                            ! Roughness
  0.1524,                                 ! Thickness {m}
  0.53,                                   ! Conductivity {W/m-K}
  1281.47706991681,                       ! Density {kg/m3}
  840;                                    ! Specific Heat {J/kg-K}

OS:ComponentData,
  {4be173ad-44a3-4180-aea1-c0e0c6026056}, !- Handle
  OS:ComponentData 4,                     !- Name
  {afaa9a4e-235a-4813-a0a8-73cc09d91774}, !- UUID
  {e8d3a4e6-8b85-4e5c-a3ac-0c8b32f66c7b}, !- Version UUID
  ,                                       !- Creation Timestamp
  ,                                       !- Version Timestamp
  {4571b19f-06b4-438d-a474-9c89ecaf0492}; !- Name of Object 1

OS:Construction,
  {6353b00b-f2d8-41f9-b212-157d2268c2f7}, !- Handle
  EXTERIOR-WALL,                          !- Name
  ,                                       !- Surface Rendering Name
  {e1bc3c73-5c86-4011-9ad1-b0453607012f}, !- Layer 1
  {3ae8e4bb-f259-4daf-9aab-ba34f4b495a4}; !- Layer 2

OS:Material,
  {e1bc3c73-5c86-4011-9ad1-b0453607012f}, !- Handle
  Brick - Fired Clay - 4 in. - 130 lb/ft3, ! Name
  MediumRough,                            ! Roughness
  0.1016,                                 ! Thickness {m}
  1.02,                                   ! Conductivity {W/m-K}
  2082.40023861482,                       ! Density {kg/m3}
  790;                                    ! Specific Heat {J/kg-K}

OS:ComponentData,
  {12b485f0-08e2-4de3-b5f1-7524e0186555}, !- Handle
  OS:ComponentData 5,                     !- Name
  {294a1c0c-f7a1-4ee9-88cc-1c117e4f5a64}, !- UUID
  {8184c6c0-7b09-4329-8934-b2c966ee1338}, !- Version UUID
  ,                                       !- Creation Timestamp
  ,                                       !- Version Timestamp
  {e1bc3c73-5c86-4011-9ad1-b0453607012f}; !- Name of Object 1

OS:Material,
  {3ae8e4bb-f259-4daf-9aab-ba34f4b495a4}, !- Handle
  Concrete Block - 10 in. - 115 lb/ft3 - Solid Grouted, ! Name
  MediumRough,                            ! Roughness
  0.254,                                  ! Thickness {m}
  1.3268965775514,                        ! Conductivity {W/m-K}
  1842.12328800542,                       ! Density {kg/m3}
  921.824139130435;                       ! Specific Heat {J/kg-K}

OS:ComponentData,
  {096c4744-b989-4e7f-9605-a3f5c7310f12}, !- Handle
  OS:ComponentData 6,                     !- Name
  {7ff03bfd-e3d8-4bb2-90ec-5721b4277ec1}, !- UUID
  {1fad732f-237b-483f-99c6-90939b7f489e}, !- Version UUID
  ,                                       !- Creation Timestamp
  ,                                       !- Version Timestamp
  {3ae8e4bb-f259-4daf-9aab-ba34f4b495a4}; !- Name of Object 1

OS:Construction,
  {8db41b2b-5e1e-4eec-a5cf-3cfefa902125}, !- Handle
  EXTERIOR-ROOF,                          !- Name
  ,                                       !- Surface Rendering Name
  {3ddd9838-c285-4283-8f5a-01dd99e4f460}, !- Layer 1
  {0dddc0a3-686a-4d75-89ce-de03d360fdae}, !- Layer 2
  {425642f2-5984-402e-b1d8-15c0ebf25d5f}, !- Layer 3
  {a516cdaf-eaa8-430a-9ab6-6ffdc09d08cd}; !- Layer 4

OS:ComponentData,
  {89ddb8c1-a39f-40b4-9fc4-1747ec7ea11a}, !- Handle
  OS:ComponentData 7,                     !- Name
  {ea7cff06-8eeb-4909-970f-4a5510dec322}, !- UUID
  {64817b4e-076d-4592-88fc-e375787220ef}, !- Version UUID
  ,                                       !- Creation Timestamp
  ,                                       !- Version Timestamp
  {3ddd9838-c285-4283-8f5a-01dd99e4f460}; !- Name of Object 1

OS:Material,
  {3ddd9838-c285-4283-8f5a-01dd99e4f460}, !- Handle
  Built-up Roofing - 3/8 in.,             ! Name
  Rough,                                  ! Roughness
  0.009525,                               ! Thickness {m}
  0.16,                                   ! Conductivity {W/m-K}
  1120,                                   ! Density {kg/m3}
  1460;                                   ! Specific Heat {J/kg-K}

OS:Material,
  {0dddc0a3-686a-4d75-89ce-de03d360fdae}, !- Handle
  Cellular Polyisocyanurate - Gaspermeable Facers - 4 in., ! Name
  Rough,                                  ! Roughness
  0.1016,                                 ! Thickness {m}
  0.0245,                                 ! Conductivity {W/m-K}
  32,                                     ! Density {kg/m3}
  920;                                    ! Specific Heat {J/kg-K}

OS:ComponentData,
  {60ec2e48-88ef-42a3-8e10-8e9c4f48532e}, !- Handle
  OS:ComponentData 8,                     !- Name
  {dfdd38d7-0768-49ed-a7b5-311be7647aae}, !- UUID
  {15360167-fef8-482e-97a2-d2e1e0cf21dd}, !- Version UUID
  ,                                       !- Creation Timestamp
  ,                                       !- Version Timestamp
  {0dddc0a3-686a-4d75-89ce-de03d360fdae}; !- Name of Object 1

OS:Material,
  {425642f2-5984-402e-b1d8-15c0ebf25d5f}, !- Handle
  Metal Surface - 1/16 in.,               ! Name
  Smooth,                                 ! Roughness
  0.0015875,                              ! Thickness {m}
  45.28,                                  ! Conductivity {W/m-K}
  7824,                                   ! Density {kg/m3}
  500;                                    ! Specific Heat {J/kg-K}

OS:ComponentData,
  {622e58dc-7cfa-43b7-a351-fa246f3a56c8}, !- Handle
  OS:ComponentData 9,                     !- Name
  {98f3fa9b-9604-451b-b12b-bd48ab0aab34}, !- UUID
  {30f50ffe-77b5-4570-9505-8fdd58b28aae}, !- Version UUID
  ,                                       !- Creation Timestamp
  ,                                       !- Version Timestamp
  {425642f2-5984-402e-b1d8-15c0ebf25d5f}; !- Name of Object 1

OS:ComponentData,
  {8949bdbe-032f-458d-9bf3-42973ed67758}, !- Handle
  OS:ComponentData 10,                    !- Name
  {fa56a732-cc1e-47ee-a8db-5765f254cd6d}, !- UUID
  {23e330d5-17cd-4490-99b8-13ba8764dfce}, !- Version UUID
  ,                                       !- Creation Timestamp
  ,                                       !- Version Timestamp
  {a516cdaf-eaa8-430a-9ab6-6ffdc09d08cd}; !- Name of Object 1

OS:Material,
  {a516cdaf-eaa8-430a-9ab6-6ffdc09d08cd}, !- Handle
  Steel-Framed - 4 in. Studs - 16 in. OC - R-0 Cavity Insulation, ! Name
  Smooth,                                 ! Roughness
  0.0889,                                 ! Thickness {m}
  0.638249853020101,                      ! Conductivity {W/m-K}
  81.3737939397175,                       ! Density {kg/m3}
  628.02;                                 ! Specific Heat {J/kg-K}

OS:Schedule:Day,
  {4ec3f934-6a2c-4e8f-9e95-0a9a29553a67}, !- Handle
  All Weekends,                           !- Name
  {23f8b34b-7dd2-4813-8038-620fe5aa799b}, !- Schedule Type Limits Name
  ,                                       !- Interpolate to Timestep
  24,                                     !- Hour 1
  0,                                      !- Minute 1
  19.6666666666667;                       !- Value Until Time 1

OS:Schedule:Day,
  {17b7cf0b-ed77-4897-b873-3db5904efcbb}, !- Handle
  All Weekdays,                           !- Name
  {23f8b34b-7dd2-4813-8038-620fe5aa799b}, !- Schedule Type Limits Name
  ,                                       !- Interpolate to Timestep
  24,                                     !- Hour 1
  0,                                      !- Minute 1
  19.7777777777778;                       !- Value Until Time 1

OS:Schedule:Day,
  {ae9de7a8-ea49-4492-9d7a-ad473faec3f0}, !- Handle
  All Weekends 1,                         !- Name
  {2acded94-e328-4963-b41d-7520bc840501}, !- Schedule Type Limits Name
  ,                                       !- Interpolate to Timestep
  24,                                     !- Hour 1
  0,                                      !- Minute 1
  22.4444444444444;                       !- Value Until Time 1

OS:Schedule:Day,
  {139a6590-737d-4a50-8a9c-f584406dbcd7}, !- Handle
  All Weekdays 1,                         !- Name
  {2acded94-e328-4963-b41d-7520bc840501}, !- Schedule Type Limits Name
  ,                                       !- Interpolate to Timestep
  24,                                     !- Hour 1
  0,                                      !- Minute 1
  22.2222222222222;                       !- Value Until Time 1

OS:Schedule:Day,
  {1617c2c2-7cd7-4764-a37f-b9b1d3d22a91}, !- Handle
  All Weekends 2,                         !- Name
  {23f8b34b-7dd2-4813-8038-620fe5aa799b}, !- Schedule Type Limits Name
  ,                                       !- Interpolate to Timestep
  24,                                     !- Hour 1
  0,                                      !- Minute 1
  10;                                     !- Value Until Time 1

OS:Schedule:Day,
  {16542c09-b47f-483d-bf14-6df5310d5c10}, !- Handle
  All Weekdays 2,                         !- Name
  {23f8b34b-7dd2-4813-8038-620fe5aa799b}, !- Schedule Type Limits Name
  ,                                       !- Interpolate to Timestep
  24,                                     !- Hour 1
  0,                                      !- Minute 1
  10;                                     !- Value Until Time 1

OS:Schedule:Day,
  {8fa8041f-1fd3-41a8-bc72-ed981d1e4bb8}, !- Handle
  All Weekends 3,                         !- Name
  {a3ec3ece-a4d4-4654-a1ed-ab0f5d88a4f4}, !- Schedule Type Limits Name
  ,                                       !- Interpolate to Timestep
  24,                                     !- Hour 1
  0,                                      !- Minute 1
  0;                                      !- Value Until Time 1

OS:Schedule:Day,
  {63bbd238-249b-4fa5-adbb-9b0bb0eb2e36}, !- Handle
  All Weekdays 3,                         !- Name
  {a3ec3ece-a4d4-4654-a1ed-ab0f5d88a4f4}, !- Schedule Type Limits Name
  ,                                       !- Interpolate to Timestep
  6,                                      !- Hour 1
  0,                                      !- Minute 1
  0,                                      !- Value Until Time 1
  11,                                     !- Hour 2
  15,                                     !- Minute 2
  0.845,                                  !- Value Until Time 2
  12,                                     !- Hour 3
  30,                                     !- Minute 3
  0.4025,                                 !- Value Until Time 3
  18,                                     !- Hour 4
  0,                                      !- Minute 4
  0.845,                                  !- Value Until Time 4
  24,                                     !- Hour 5
  0,                                      !- Minute 5
  0;                                      !- Value Until Time 5

OS:Schedule:Day,
  {67988b18-8262-4d49-aab8-5af5305307aa}, !- Handle
  All Weekends 4,                         !- Name
  {71e267ec-cf8f-4595-ba01-983ea5b78158}, !- Schedule Type Limits Name
  ,                                       !- Interpolate to Timestep
  24,                                     !- Hour 1
  0,                                      !- Minute 1
  0;                                      !- Value Until Time 1

OS:Schedule:Day,
  {a858ae19-55a6-4fbf-8a66-87d99a7f9a5e}, !- Handle
  All Weekdays 4,                         !- Name
  {71e267ec-cf8f-4595-ba01-983ea5b78158}, !- Schedule Type Limits Name
  ,                                       !- Interpolate to Timestep
  5,                                      !- Hour 1
  30,                                     !- Minute 1
  0,                                      !- Value Until Time 1
  19,                                     !- Hour 2
  45,                                     !- Minute 2
  0.2925,                                 !- Value Until Time 2
  24,                                     !- Hour 3
  0,                                      !- Minute 3
  0;                                      !- Value Until Time 3

OS:Schedule:Day,
  {698570c6-a031-4aa8-b36d-2be939c80655}, !- Handle
  All Weekends 5,                         !- Name
  {d7e1d515-e7a8-4699-b733-4c4c0de6a43b}, !- Schedule Type Limits Name
  ,                                       !- Interpolate to Timestep
  24,                                     !- Hour 1
  0,                                      !- Minute 1
  0.055;                                  !- Value Until Time 1

OS:Schedule:Day,
  {ce3babd5-9afd-43bb-9b52-b34ebe911a02}, !- Handle
  All Weekdays 5,                         !- Name
  {d7e1d515-e7a8-4699-b733-4c4c0de6a43b}, !- Schedule Type Limits Name
  ,                                       !- Interpolate to Timestep
  4,                                      !- Hour 1
  30,                                     !- Minute 1
  0.0425,                                 !- Value Until Time 1
  7,                                      !- Hour 2
  15,                                     !- Minute 2
  0.365,                                  !- Value Until Time 2
  11,                                     !- Hour 3
  30,                                     !- Minute 3
  0.145,                                  !- Value Until Time 3
  14,                                     !- Hour 4
  15,                                     !- Minute 4
  0.4475,                                 !- Value Until Time 4
  18,                                     !- Hour 5
  45,                                     !- Minute 5
  0.14,                                   !- Value Until Time 5
  24,                                     !- Hour 6
  0,                                      !- Minute 6
  0.055;                                  !- Value Until Time 6

OS:Schedule:Day,
  {d507d86f-9157-43b4-8687-a20054ce25e9}, !- Handle
  All Weekends 6,                         !- Name
  {507e98be-c67e-496f-9389-208c1826f4f8}, !- Schedule Type Limits Name
  ,                                       !- Interpolate to Timestep
  24,                                     !- Hour 1
  0,                                      !- Minute 1
  0.3;                                    !- Value Until Time 1

OS:Schedule:Day,
  {7d2305c1-695c-44df-8183-8c0d17a912b0}, !- Handle
  All Weekdays 6,                         !- Name
  {507e98be-c67e-496f-9389-208c1826f4f8}, !- Schedule Type Limits Name
  ,                                       !- Interpolate to Timestep
  4,                                      !- Hour 1
  30,                                     !- Minute 1
  0.3025,                                 !- Value Until Time 1
  6,                                      !- Hour 2
  15,                                     !- Minute 2
  0.6075,                                 !- Value Until Time 2
  18,                                     !- Hour 3
  0,                                      !- Minute 3
  0.845,                                  !- Value Until Time 3
  19,                                     !- Hour 4
  45,                                     !- Minute 4
  0.5975,                                 !- Value Until Time 4
  20,                                     !- Hour 5
  30,                                     !- Minute 5
  0.2975,                                 !- Value Until Time 5
  24,                                     !- Hour 6
  0,                                      !- Minute 6
  0.2975;                                 !- Value Until Time 6

OS:Schedule:Day,
  {b9dd2272-3808-4216-aa66-833d3e4b1072}, !- Handle
  All Weekends 7,                         !- Name
  {9399d485-52f3-46dd-aed7-20e25c043301}, !- Schedule Type Limits Name
  ,                                       !- Interpolate to Timestep
  24,                                     !- Hour 1
  0,                                      !- Minute 1
  0.2025;                                 !- Value Until Time 1

OS:Schedule:Day,
  {f3bbc5b0-5b6c-45c7-9070-46a86f4a5054}, !- Handle
  All Weekdays 7,                         !- Name
  {9399d485-52f3-46dd-aed7-20e25c043301}, !- Schedule Type Limits Name
  ,                                       !- Interpolate to Timestep
  6,                                      !- Hour 1
  15,                                     !- Minute 1
  0.5,                                    !- Value Until Time 1
  11,                                     !- Hour 2
  45,                                     !- Minute 2
  0.85,                                   !- Value Until Time 2
  13,                                     !- Hour 3
  30,                                     !- Minute 3
  0.675,                                  !- Value Until Time 3
  18,                                     !- Hour 4
  0,                                      !- Minute 4
  0.8375,                                 !- Value Until Time 4
  24,                                     !- Hour 5
  0,                                      !- Minute 5
  0.1975;                                 !- Value Until Time 5

OS:Schedule:Day,
  {65b0dfd8-f9cd-434e-a8e6-3cf52de44ca2}, !- Handle
  All Weekends 8,                         !- Name
  {6211c392-9f6d-460d-90c2-ba8d6aa3a10a}, !- Schedule Type Limits Name
  ,                                       !- Interpolate to Timestep
  24,                                     !- Hour 1
  0,                                      !- Minute 1
  0.995;                                  !- Value Until Time 1

OS:Schedule:Day,
  {f2be5f90-c68d-4d1a-b581-e89703e5b5ef}, !- Handle
  All Weekdays 8,                         !- Name
  {6211c392-9f6d-460d-90c2-ba8d6aa3a10a}, !- Schedule Type Limits Name
  ,                                       !- Interpolate to Timestep
  24,                                     !- Hour 1
  0,                                      !- Minute 1
  0.995;                                  !- Value Until Time 1

OS:Schedule:Ruleset,
  {9f03e1ee-2991-4a0e-abb0-d4a55a396412}, !- Handle
  Level Thermostat Heating Setpoint,      !- Name
  {23f8b34b-7dd2-4813-8038-620fe5aa799b}, !- Schedule Type Limits Name
  {969230db-6380-44cb-a0d3-ea00a28d1551}, !- Default Day Schedule Name
  {b15282b5-78da-426c-910e-74591e42eb9b}, !- Summer Design Day Schedule Name
  {5cbe0ed8-6baf-4f05-828c-b26e223dfb2b}; !- Winter Design Day Schedule Name

OS:Schedule:Day,
  {969230db-6380-44cb-a0d3-ea00a28d1551}, !- Handle
  Schedule Day 1,                         !- Name
  {23f8b34b-7dd2-4813-8038-620fe5aa799b}, !- Schedule Type Limits Name
  ,                                       !- Interpolate to Timestep
  24,                                     !- Hour 1
  0,                                      !- Minute 1
  0;                                      !- Value Until Time 1

OS:Schedule:Rule,
  {c6187531-9e50-423a-beb8-7a707f41b5fd}, !- Handle
  Level Thermostat Heating Setpoint Default Weekday Schedule, !- Name
  {9f03e1ee-2991-4a0e-abb0-d4a55a396412}, !- Schedule Ruleset Name
  1,                                      !- Rule Order
  {dbdc3d9d-de34-48a5-9165-355ad97d5f01}, !- Day Schedule Name
  No,                                     !- Apply Sunday
  Yes,                                    !- Apply Monday
  Yes,                                    !- Apply Tuesday
  Yes,                                    !- Apply Wednesday
  Yes,                                    !- Apply Thursday
  Yes,                                    !- Apply Friday
  No;                                     !- Apply Saturday

OS:Schedule:Day,
  {dbdc3d9d-de34-48a5-9165-355ad97d5f01}, !- Handle
  All Weekdays 9,                         !- Name
  {23f8b34b-7dd2-4813-8038-620fe5aa799b}, !- Schedule Type Limits Name
  ,                                       !- Interpolate to Timestep
  24,                                     !- Hour 1
  0,                                      !- Minute 1
  19.7777777777778;                       !- Value Until Time 1

OS:Schedule:Rule,
  {e20f5320-d7ef-4bc3-93fa-71e15c9dbe01}, !- Handle
  Level Thermostat Heating Setpoint Default Weekend Schedule, !- Name
  {9f03e1ee-2991-4a0e-abb0-d4a55a396412}, !- Schedule Ruleset Name
  0,                                      !- Rule Order
  {19ea161f-6144-406c-baab-8e91adc0b4f0}, !- Day Schedule Name
  Yes,                                    !- Apply Sunday
  No,                                     !- Apply Monday
  No,                                     !- Apply Tuesday
  No,                                     !- Apply Wednesday
  No,                                     !- Apply Thursday
  No,                                     !- Apply Friday
  Yes;                                    !- Apply Saturday

OS:Schedule:Day,
  {19ea161f-6144-406c-baab-8e91adc0b4f0}, !- Handle
  All Weekends 9,                         !- Name
  {23f8b34b-7dd2-4813-8038-620fe5aa799b}, !- Schedule Type Limits Name
  ,                                       !- Interpolate to Timestep
  24,                                     !- Hour 1
  0,                                      !- Minute 1
  19.6666666666667;                       !- Value Until Time 1

OS:Schedule:Day,
  {2c098c0a-7109-44d5-818c-5dee798bc5eb}, !- Handle
  Level Thermostat Heating Setpoint Winter Design Day, !- Name
  ,                                       !- Schedule Type Limits Name
  ,                                       !- Interpolate to Timestep
  24,                                     !- Hour 1
  0,                                      !- Minute 1
  19.6666666666667;                       !- Value Until Time 1

OS:Schedule:Day,
  {5cbe0ed8-6baf-4f05-828c-b26e223dfb2b}, !- Handle
  Level Thermostat Heating Setpoint Winter Design Day 1, !- Name
  {23f8b34b-7dd2-4813-8038-620fe5aa799b}, !- Schedule Type Limits Name
  ,                                       !- Interpolate to Timestep
  24,                                     !- Hour 1
  0,                                      !- Minute 1
  19.6666666666667;                       !- Value Until Time 1

OS:Schedule:Day,
  {ba1746b3-fd62-4081-b595-6141498deb5a}, !- Handle
  Level Thermostat Heating Setpoint Summer Design Day, !- Name
  ,                                       !- Schedule Type Limits Name
  ,                                       !- Interpolate to Timestep
  24,                                     !- Hour 1