
OS:Version,
  {5536521d-d222-40fb-86dd-ed812ebf257b}, !- Handle
  1.6.0;                                  !- Version Identifier

OS:ClimateZones,
  {135edfab-17e7-40db-a436-27d385a8cd6d}, !- Handle
  ,                                       !- Active Institution
  ,                                       !- Active Year
  ASHRAE,                                 !- Climate Zone Institution Name 1
  ANSI/ASHRAE Standard 169,               !- Climate Zone Document Name 1
  2006,                                   !- Climate Zone Document Year 1
  ,                                       !- Climate Zone Value 1
  CEC,                                    !- Climate Zone Institution Name 2
  California Climate Zone Descriptions,   !- Climate Zone Document Name 2
  1995,                                   !- Climate Zone Document Year 2
  ;                                       !- Climate Zone Value 2

OS:YearDescription,
  {513d8dda-86cb-442a-b01c-1f7f0e0ac70e}; !- Handle

OS:RadianceParameters,
  {270a96f1-3c86-4b75-a667-cdf22790e2c8}, !- Handle
  1,                                      !- Accumulated Rays per Record
  0,                                      !- Direct Threshold
  1,                                      !- Direct Certainty
  1,                                      !- Direct Jitter
  1,                                      !- Direct Pretest
  6,                                      !- Ambient Bounces VMX
  2,                                      !- Ambient Bounces DMX
  4050,                                   !- Ambient Divisions VMX
  512,                                    !- Ambient Divisions DMX
  256,                                    !- Ambient Supersamples
  0.001,                                  !- Limit Weight VMX
  0.001,                                  !- Limit Weight DMX
  500,                                    !- Klems Sampling Density
  146;                                    !- Sky Discretization Resolution

OS:SimulationControl,
  {2c487a4c-bac9-4ac5-b669-1e49d9da7c2b}, !- Handle
  ,                                       !- Do Zone Sizing Calculation
  ,                                       !- Do System Sizing Calculation
  ,                                       !- Do Plant Sizing Calculation
  No,                                     !- Run Simulation for Sizing Periods
  ,                                       !- Run Simulation for Weather File Run Periods
  0.04,                                   !- Loads Convergence Tolerance Value
  ,                                       !- Temperature Convergence Tolerance Value {deltaC}
  ,                                       !- Solar Distribution
  ,                                       !- Maximum Number of Warmup Days
  2;                                      !- Minimum Number of Warmup Days

OS:Sizing:Parameters,
  {dde5af6f-7923-4600-a28a-7556673a0266}, !- Handle
  1.25,                                   !- Heating Sizing Factor
  1.15;                                   !- Cooling Sizing Factor

OS:ProgramControl,
  {05027a99-f2b3-4aeb-afc6-1425fbb4371d}; !- Handle

OS:Timestep,
  {4ebc9f1e-4707-402e-9844-67eb1ffbd522}, !- Handle
  2;                                      !- Number of Timesteps per Hour

OS:OutputControl:ReportingTolerances,
  {65797aa2-06a9-45fe-b69d-bc6e060399d3}; !- Handle

OS:ConvergenceLimits,
  {9fc11aba-8822-4f3d-970c-46391ba4040d}; !- Handle

OS:ShadowCalculation,
  {ca758bea-4416-4626-9bba-3d8795c79bd6}, !- Handle
  7,                                      !- Calculation Frequency
  15000;                                  !- Maximum Figures in Shadow Overlap Calculations

OS:SurfaceConvectionAlgorithm:Inside,
  {aaabfc36-718a-4ab0-b622-f186ebb45230}, !- Handle
  TARP;                                   !- Algorithm

OS:SurfaceConvectionAlgorithm:Outside,
  {9a0a9f6f-4bbd-4b12-a121-9492a1fcd7d6}, !- Handle
  DOE-2;                                  !- Algorithm

OS:HeatBalanceAlgorithm,
  {9d93e563-e1e0-46d7-9e39-d1c8aceb7212}, !- Handle
  ConductionTransferFunction,             !- Algorithm
  200;                                    !- Surface Temperature Upper Limit {F}

OS:ZoneAirHeatBalanceAlgorithm,
  {8520d93e-310f-4696-9bcd-36228bfdd743}, !- Handle
  AnalyticalSolution;                     !- Algorithm

OS:ZoneAirContaminantBalance,
  {eb5fc3ae-fb22-4160-8fcb-3e3b22b000d3}; !- Handle

OS:ZoneCapacitanceMultiplier:ResearchSpecial,
  {4020ce4f-5a7a-4849-8028-8305d7b751b1}, !- Handle
  ,                                       !- Temperature Capacity Multiplier
  ,                                       !- Humidity Capacity Multiplier
  ;                                       !- Carbon Dioxide Capacity Multiplier

OS:RunPeriod,
  {28df894d-6af9-4fb8-8f56-df1753344aa3}, !- Handle
  Run Period 1,                           !- Name
  1,                                      !- Begin Month
  1,                                      !- Begin Day of Month
  12,                                     !- End Month
  31,                                     !- End Day of Month
  ,                                       !- Use Weather File Holidays and Special Days
  ,                                       !- Use Weather File Daylight Saving Period
  ,                                       !- Apply Weekend Holiday Rule
  ,                                       !- Use Weather File Rain Indicators
  ,                                       !- Use Weather File Snow Indicators
  ;                                       !- Number of Times Runperiod to be Repeated

OS:Building,
  {bf305633-c5a1-4881-9edf-ca5e1a8e1274}, !- Handle
  Building 1,                             !- Name
  ,                                       !- Building Sector Type
  ,                                       !- North Axis {deg}
  ,                                       !- Nominal Floor to Floor Height {m}
  ,                                       !- Space Type Name
  ,                                       !- Default Construction Set Name
  {11d6e451-8c7d-4603-b48b-0c442ab6df7e}, !- Default Schedule Set Name
  ,                                       !- Standards Number of Stories
  ,                                       !- Standards Number of Above Ground Stories
  AssistedLiving;                         !- Standards Building Type

OS:LifeCycleCost:Parameters,
  {231cf8a0-f0e7-4251-a99f-11f0d464e661}, !- Handle
  FEMP,                                   !- Analysis Type
  ,                                       !- Discounting Convention
  ,                                       !- Inflation Approach
  ,                                       !- Real Discount Rate
  ,                                       !- Nominal Discount Rate
  ,                                       !- Inflation
  ,                                       !- Base Date Month
  ,                                       !- Base Date Year
  ,                                       !- Service Date Month
  ,                                       !- Service Date Year
  ,                                       !- Length of Study Period in Years
  ,                                       !- Tax Rate
  ,                                       !- Depreciation Method
  Yes;                                    !- Use NIST Fuel Escalation Rates

OS:Facility,
  {3ba8e45b-b833-44eb-a723-ea6c3946dc96}; !- Handle

OS:SpaceType,
  {3858ed0d-4150-471b-8f80-c829395c7541}, !- Handle
  AssistedLiving|BlendPat|DOE Ref 2004|ASHRAE 169-2006-5A, !- Name
  {2c8b97b8-eab0-4234-9bd8-afd455288104}, !- Default Construction Set Name
  ,                                       !- Default Schedule Set Name
  {17e626ec-32cd-4fe4-8f6b-72d929a3dd9a}, !- Group Rendering Name
  {12196585-c617-4beb-8890-7d2f8ed83796}, !- Design Specification Outdoor Air Object Name
  AssistedLiving,                         !- Standards Building Type
  BlendPat;                               !- Standards Space Type

OS:Rendering:Color,
  {17e626ec-32cd-4fe4-8f6b-72d929a3dd9a}, !- Handle
  Rendering Color 1,                      !- Name
  78,                                     !- Rendering Red Value
  167,                                    !- Rendering Green Value
  222;                                    !- Rendering Blue Value

OS:SpaceType,
  {59b3ae2b-d3ab-44d7-a11d-4249c969d02a}, !- Handle
  AssistedLiving|BlendCom|DOE Ref 2004|ASHRAE 169-2006-5A, !- Name
  {2c8b97b8-eab0-4234-9bd8-afd455288104}, !- Default Construction Set Name
  ,                                       !- Default Schedule Set Name
  {c2e9213c-c1ab-4a6f-91f0-b9bc7e0d351b}, !- Group Rendering Name
  {0f59a72d-5b7f-4073-9679-36535edc31c1}, !- Design Specification Outdoor Air Object Name
  AssistedLiving,                         !- Standards Building Type
  BlendCom;                               !- Standards Space Type

OS:Rendering:Color,
  {c2e9213c-c1ab-4a6f-91f0-b9bc7e0d351b}, !- Handle
  Rendering Color 2,                      !- Name
  31,                                     !- Rendering Red Value
  169,                                    !- Rendering Green Value
  34;                                     !- Rendering Blue Value

OS:SpaceType,
  {538d1219-3add-4d34-8350-20b261715fa3}, !- Handle
  AssistedLiving|Kitchen|DOE Ref 2004|ASHRAE 169-2006-5A, !- Name
  {2c8b97b8-eab0-4234-9bd8-afd455288104}, !- Default Construction Set Name
  {52231d2a-adeb-48a4-9d29-e3ce1365751c}, !- Default Schedule Set Name
  {98147914-accf-4727-8c2c-65fe3906dcfc}, !- Group Rendering Name
  {46f192ef-344d-40e6-b103-30ba653b6478}, !- Design Specification Outdoor Air Object Name
  AssistedLiving,                         !- Standards Building Type
  Kitchen;                                !- Standards Space Type

OS:Rendering:Color,
  {98147914-accf-4727-8c2c-65fe3906dcfc}, !- Handle
  Rendering Color 3,                      !- Name
  78,                                     !- Rendering Red Value
  222,                                    !- Rendering Green Value
  133;                                    !- Rendering Blue Value

OS:Schedule:Ruleset,
  {2936f645-6b37-4d87-bc51-1ae7b1bc2a1e}, !- Handle
  0600|2200|AssistedLiving|default|hoo,   !- Name
  {86132695-98e7-41c7-af43-77c7225e3b91}, !- Schedule Type Limits Name
  {af2462da-88b1-4813-927a-7a36bd7b12b8}, !- Default Day Schedule Name
  {9c080592-8cda-404b-987f-2e3e028c9e4e}, !- Summer Design Day Schedule Name
  {2a715e0f-7135-4dfe-8991-886b700b4441}; !- Winter Design Day Schedule Name

OS:Schedule:Day,
  {af2462da-88b1-4813-927a-7a36bd7b12b8}, !- Handle
  0600|2200|AssistedLiving|default|hoo Schedule Week Day, !- Name
  {86132695-98e7-41c7-af43-77c7225e3b91}, !- Schedule Type Limits Name
  ,                                       !- Interpolate to Timestep
  6,                                      !- Hour 1
  0,                                      !- Minute 1
  0,                                      !- Value Until Time 1
  22,                                     !- Hour 2
  0,                                      !- Minute 2
  1,                                      !- Value Until Time 2
  24,                                     !- Hour 3
  0,                                      !- Minute 3
  0;                                      !- Value Until Time 3

OS:Schedule:Day,
  {60b4b9c6-e3d4-4516-b4ce-d473c5a55081}, !- Handle
  Schedule Day 2,                         !- Name
  ,                                       !- Schedule Type Limits Name
  ,                                       !- Interpolate to Timestep
  24,                                     !- Hour 1
  0,                                      !- Minute 1
  0;                                      !- Value Until Time 1

OS:Schedule:Day,
  {2a715e0f-7135-4dfe-8991-886b700b4441}, !- Handle
  0600|2200|AssistedLiving|default|hoo Winter Design Day, !- Name
  {86132695-98e7-41c7-af43-77c7225e3b91}, !- Schedule Type Limits Name
  ,                                       !- Interpolate to Timestep
  24,                                     !- Hour 1
  0,                                      !- Minute 1
  0;                                      !- Value Until Time 1

OS:Schedule:Day,
  {48e4ee02-ecab-402f-add9-0afd3b271e7a}, !- Handle
  Schedule Day 3,                         !- Name
  ,                                       !- Schedule Type Limits Name
  ,                                       !- Interpolate to Timestep
  24,                                     !- Hour 1
  0,                                      !- Minute 1
  0;                                      !- Value Until Time 1

OS:Schedule:Day,
  {9c080592-8cda-404b-987f-2e3e028c9e4e}, !- Handle
  0600|2200|AssistedLiving|default|hoo Summer Design Day, !- Name
  {86132695-98e7-41c7-af43-77c7225e3b91}, !- Schedule Type Limits Name
  ,                                       !- Interpolate to Timestep
  24,                                     !- Hour 1
  0,                                      !- Minute 1
  1;                                      !- Value Until Time 1

OS:DefaultScheduleSet,
  {11d6e451-8c7d-4603-b48b-0c442ab6df7e}, !- Handle
  Building Hours of Operation,            !- Name
  {2936f645-6b37-4d87-bc51-1ae7b1bc2a1e}, !- Hours of Operation Schedule Name
  ,                                       !- Number of People Schedule Name
  ,                                       !- People Activity Level Schedule Name
  ,                                       !- Lighting Schedule Name
  ,                                       !- Electric Equipment Schedule Name
  ,                                       !- Gas Equipment Schedule Name
  ,                                       !- Hot Water Equipment Schedule Name
  ,                                       !- Infiltration Schedule Name
  ,                                       !- Steam Equipment Schedule Name
  ;                                       !- Other Equipment Schedule Name

OS:ScheduleTypeLimits,
  {86132695-98e7-41c7-af43-77c7225e3b91}, !- Handle
  OnOff,                                  !- Name
  0,                                      !- Lower Limit Value {BasedOnField A4}
  1,                                      !- Upper Limit Value {BasedOnField A4}
  Discrete,                               !- Numeric Type
  Availability;                           !- Unit Type

OS:Schedule:Ruleset,
  {d5ef2d6b-55c1-4edc-aba4-cab3dfe0ebf0}, !- Handle
  0600|2200|AssistedLiving|PatRoom|elec_equip, !- Name
  {0a83f4cc-11c0-45b8-95d4-d9bf30d979ec}, !- Schedule Type Limits Name
  {b0e2d3dc-0629-4e1c-976d-9be6b11cc6f5}, !- Default Day Schedule Name
  {cd7d645a-8d3c-4021-bf7a-a57501f53564}, !- Summer Design Day Schedule Name
  {fe0ada85-7ae9-4895-be2c-dace0176f3ee}; !- Winter Design Day Schedule Name

OS:ScheduleTypeLimits,
  {0a83f4cc-11c0-45b8-95d4-d9bf30d979ec}, !- Handle
  Equipment Schedule Type Limits,         !- Name
  0,                                      !- Lower Limit Value {BasedOnField A4}
  1,                                      !- Upper Limit Value {BasedOnField A4}
  Continuous,                             !- Numeric Type
  Dimensionless;                          !- Unit Type

OS:Schedule:Day,
  {b0e2d3dc-0629-4e1c-976d-9be6b11cc6f5}, !- Handle
  0600|2200|AssistedLiving|PatRoom|elec_equip |default, !- Name
  {0a83f4cc-11c0-45b8-95d4-d9bf30d979ec}, !- Schedule Type Limits Name
  ,                                       !- Interpolate to Timestep
  8,                                      !- Hour 1
  0,                                      !- Minute 1
  0.5,                                    !- Value Until Time 1
  18,                                     !- Hour 2
  0,                                      !- Minute 2
  1,                                      !- Value Until Time 2
  20,                                     !- Hour 3
  0,                                      !- Minute 3
  0.8,                                    !- Value Until Time 3
  24,                                     !- Hour 4
  0,                                      !- Minute 4
  0.5;                                    !- Value Until Time 4

OS:Schedule:Day,
  {cd7d645a-8d3c-4021-bf7a-a57501f53564}, !- Handle
  0600|2200|AssistedLiving|PatRoom|elec_equip Summer Design Day, !- Name
  {0a83f4cc-11c0-45b8-95d4-d9bf30d979ec}, !- Schedule Type Limits Name
  ,                                       !- Interpolate to Timestep
  24,                                     !- Hour 1
  0,                                      !- Minute 1
  1;                                      !- Value Until Time 1

OS:Schedule:Day,
  {fe0ada85-7ae9-4895-be2c-dace0176f3ee}, !- Handle
  0600|2200|AssistedLiving|PatRoom|elec_equip Winter Design Day, !- Name
  {0a83f4cc-11c0-45b8-95d4-d9bf30d979ec}, !- Schedule Type Limits Name
  ,                                       !- Interpolate to Timestep
  24,                                     !- Hour 1
  0,                                      !- Minute 1
  0.5;                                    !- Value Until Time 1

OS:Schedule:Ruleset,
  {d82bd5fe-b51a-464b-a44a-2e85cc479477}, !- Handle
  0600|2200|AssistedLiving|Kitchen|elec_equip, !- Name
  {0a83f4cc-11c0-45b8-95d4-d9bf30d979ec}, !- Schedule Type Limits Name
  {8bcbad76-b248-41f8-98a0-9c32a33a72df}, !- Default Day Schedule Name
  {e1fd90f3-7ce6-4f9c-97b2-914ce3c6c1b2}, !- Summer Design Day Schedule Name
  {4fab56c6-d144-4b6b-900d-f77d5e1eda9a}; !- Winter Design Day Schedule Name

OS:Schedule:Day,
  {8bcbad76-b248-41f8-98a0-9c32a33a72df}, !- Handle
  0600|2200|AssistedLiving|Kitchen|elec_equip |default, !- Name
  {0a83f4cc-11c0-45b8-95d4-d9bf30d979ec}, !- Schedule Type Limits Name
  ,                                       !- Interpolate to Timestep
  7,                                      !- Hour 1
  0,                                      !- Minute 1
  0.02,                                   !- Value Until Time 1
  8,                                      !- Hour 2
  0,                                      !- Minute 2
  0.05,                                   !- Value Until Time 2
  9,                                      !- Hour 3
  0,                                      !- Minute 3
  0.1,                                    !- Value Until Time 3
  10,                                     !- Hour 4
  0,                                      !- Minute 4
  0.15,                                   !- Value Until Time 4
  11,                                     !- Hour 5
  0,                                      !- Minute 5
  0.2,                                    !- Value Until Time 5
  12,                                     !- Hour 6
  0,                                      !- Minute 6
  0.15,                                   !- Value Until Time 6
  13,                                     !- Hour 7
  0,                                      !- Minute 7
  0.25,                                   !- Value Until Time 7
  14,                                     !- Hour 8
  0,                                      !- Minute 8
  0.2,                                    !- Value Until Time 8
  15,                                     !- Hour 9
  0,                                      !- Minute 9
  0.15,                                   !- Value Until Time 9
  16,                                     !- Hour 10
  0,                                      !- Minute 10
  0.2,                                    !- Value Until Time 10
  19,                                     !- Hour 11
  0,                                      !- Minute 11
  0.3,                                    !- Value Until Time 11
  21,                                     !- Hour 12
  0,                                      !- Minute 12
  0.2,                                    !- Value Until Time 12
  22,                                     !- Hour 13
  0,                                      !- Minute 13
  0.15,                                   !- Value Until Time 13
  23,                                     !- Hour 14
  0,                                      !- Minute 14
  0.1,                                    !- Value Until Time 14
  24,                                     !- Hour 15
  0,                                      !- Minute 15
  0.05;                                   !- Value Until Time 15

OS:Schedule:Day,
  {e1fd90f3-7ce6-4f9c-97b2-914ce3c6c1b2}, !- Handle
  0600|2200|AssistedLiving|Kitchen|elec_equip Summer Design Day, !- Name
  {0a83f4cc-11c0-45b8-95d4-d9bf30d979ec}, !- Schedule Type Limits Name
  ,                                       !- Interpolate to Timestep
  7,                                      !- Hour 1
  0,                                      !- Minute 1
  0.02,                                   !- Value Until Time 1
  8,                                      !- Hour 2
  0,                                      !- Minute 2
  0.05,                                   !- Value Until Time 2
  9,                                      !- Hour 3
  0,                                      !- Minute 3
  0.1,                                    !- Value Until Time 3
  10,                                     !- Hour 4
  0,                                      !- Minute 4
  0.15,                                   !- Value Until Time 4
  11,                                     !- Hour 5
  0,                                      !- Minute 5
  0.2,                                    !- Value Until Time 5
  12,                                     !- Hour 6
  0,                                      !- Minute 6
  0.15,                                   !- Value Until Time 6
  13,                                     !- Hour 7
  0,                                      !- Minute 7
  0.25,                                   !- Value Until Time 7
  14,                                     !- Hour 8
  0,                                      !- Minute 8
  0.2,                                    !- Value Until Time 8
  15,                                     !- Hour 9
  0,                                      !- Minute 9
  0.15,                                   !- Value Until Time 9
  16,                                     !- Hour 10
  0,                                      !- Minute 10
  0.2,                                    !- Value Until Time 10
  19,                                     !- Hour 11
  0,                                      !- Minute 11
  1,                                      !- Value Until Time 11
  21,                                     !- Hour 12
  0,                                      !- Minute 12
  0.2,                                    !- Value Until Time 12
  22,                                     !- Hour 13
  0,                                      !- Minute 13
  0.15,                                   !- Value Until Time 13
  23,                                     !- Hour 14
  0,                                      !- Minute 14
  0.1,                                    !- Value Until Time 14
  24,                                     !- Hour 15
  0,                                      !- Minute 15
  0.05;                                   !- Value Until Time 15

OS:Schedule:Day,
  {4fab56c6-d144-4b6b-900d-f77d5e1eda9a}, !- Handle
  0600|2200|AssistedLiving|Kitchen|elec_equip Winter Design Day, !- Name
  {0a83f4cc-11c0-45b8-95d4-d9bf30d979ec}, !- Schedule Type Limits Name
  ,                                       !- Interpolate to Timestep
  24,                                     !- Hour 1
  0,                                      !- Minute 1
  0.02;                                   !- Value Until Time 1

OS:Schedule:Ruleset,
  {c3321ee1-0a23-4f91-bd74-78b306618be0}, !- Handle
  0600|2200|AssistedLiving|PatCorridor|elec_equip, !- Name
  {0a83f4cc-11c0-45b8-95d4-d9bf30d979ec}, !- Schedule Type Limits Name
  {848d5b4d-c627-40e6-8a1a-a6409176e48f}, !- Default Day Schedule Name
  {e3731803-562d-4103-a73d-3b262c66a913}, !- Summer Design Day Schedule Name
  {4546acbf-dbb3-4662-b4a0-75a43cacef95}; !- Winter Design Day Schedule Name

OS:Schedule:Day,
  {848d5b4d-c627-40e6-8a1a-a6409176e48f}, !- Handle
  0600|2200|AssistedLiving|PatCorridor|elec_equip |default, !- Name
  {0a83f4cc-11c0-45b8-95d4-d9bf30d979ec}, !- Schedule Type Limits Name
  ,                                       !- Interpolate to Timestep
  8,                                      !- Hour 1
  0,                                      !- Minute 1
  0.5,                                    !- Value Until Time 1
  18,                                     !- Hour 2
  0,                                      !- Minute 2
  1,                                      !- Value Until Time 2
  20,                                     !- Hour 3
  0,                                      !- Minute 3
  0.8,                                    !- Value Until Time 3
  24,                                     !- Hour 4
  0,                                      !- Minute 4
  0.5;                                    !- Value Until Time 4

OS:Schedule:Day,
  {e3731803-562d-4103-a73d-3b262c66a913}, !- Handle
  0600|2200|AssistedLiving|PatCorridor|elec_equip Summer Design Day, !- Name
  {0a83f4cc-11c0-45b8-95d4-d9bf30d979ec}, !- Schedule Type Limits Name
  ,                                       !- Interpolate to Timestep
  24,                                     !- Hour 1
  0,                                      !- Minute 1
  1;                                      !- Value Until Time 1

OS:Schedule:Day,
  {4546acbf-dbb3-4662-b4a0-75a43cacef95}, !- Handle
  0600|2200|AssistedLiving|PatCorridor|elec_equip Winter Design Day, !- Name
  {0a83f4cc-11c0-45b8-95d4-d9bf30d979ec}, !- Schedule Type Limits Name
  ,                                       !- Interpolate to Timestep
  24,                                     !- Hour 1
  0,                                      !- Minute 1
  0.5;                                    !- Value Until Time 1

OS:Schedule:Ruleset,
  {c4d2b6f8-e5f8-4b25-b6a1-2b46d27e9447}, !- Handle
  0600|2200|AssistedLiving|Kitchen|gas_equip, !- Name
  {0a83f4cc-11c0-45b8-95d4-d9bf30d979ec}, !- Schedule Type Limits Name
  {b14db956-1391-448a-8deb-465b6f3c9fb6}, !- Default Day Schedule Name
  {dd0c6008-de56-4511-add8-b5fff2519fc2}, !- Summer Design Day Schedule Name
  {fc162f14-4ea1-4c1a-93e1-0a743fc52c72}; !- Winter Design Day Schedule Name

OS:Schedule:Day,
  {b14db956-1391-448a-8deb-465b6f3c9fb6}, !- Handle
  0600|2200|AssistedLiving|Kitchen|gas_equip |default, !- Name
  {0a83f4cc-11c0-45b8-95d4-d9bf30d979ec}, !- Schedule Type Limits Name
  ,                                       !- Interpolate to Timestep
  7,                                      !- Hour 1
  0,                                      !- Minute 1
  0.02,                                   !- Value Until Time 1
  8,                                      !- Hour 2
  0,                                      !- Minute 2
  0.05,                                   !- Value Until Time 2
  9,                                      !- Hour 3
  0,                                      !- Minute 3
  0.1,                                    !- Value Until Time 3
  10,                                     !- Hour 4
  0,                                      !- Minute 4
  0.15,                                   !- Value Until Time 4
  11,                                     !- Hour 5
  0,                                      !- Minute 5
  0.2,                                    !- Value Until Time 5
  12,                                     !- Hour 6
  0,                                      !- Minute 6
  0.15,                                   !- Value Until Time 6
  13,                                     !- Hour 7
  0,                                      !- Minute 7
  0.25,                                   !- Value Until Time 7
  14,                                     !- Hour 8
  0,                                      !- Minute 8
  0.2,                                    !- Value Until Time 8
  15,                                     !- Hour 9
  0,                                      !- Minute 9
  0.15,                                   !- Value Until Time 9
  16,                                     !- Hour 10
  0,                                      !- Minute 10
  0.2,                                    !- Value Until Time 10
  19,                                     !- Hour 11
  0,                                      !- Minute 11
  0.3,                                    !- Value Until Time 11
  21,                                     !- Hour 12
  0,                                      !- Minute 12
  0.2,                                    !- Value Until Time 12
  22,                                     !- Hour 13
  0,                                      !- Minute 13
  0.15,                                   !- Value Until Time 13
  23,                                     !- Hour 14
  0,                                      !- Minute 14
  0.1,                                    !- Value Until Time 14
  24,                                     !- Hour 15
  0,                                      !- Minute 15
  0.05;                                   !- Value Until Time 15

OS:Schedule:Day,
  {dd0c6008-de56-4511-add8-b5fff2519fc2}, !- Handle
  0600|2200|AssistedLiving|Kitchen|gas_equip Summer Design Day, !- Name
  {0a83f4cc-11c0-45b8-95d4-d9bf30d979ec}, !- Schedule Type Limits Name
  ,                                       !- Interpolate to Timestep
  7,                                      !- Hour 1
  0,                                      !- Minute 1
  0.02,                                   !- Value Until Time 1
  8,                                      !- Hour 2
  0,                                      !- Minute 2
  0.05,                                   !- Value Until Time 2
  9,                                      !- Hour 3
  0,                                      !- Minute 3
  0.1,                                    !- Value Until Time 3
  10,                                     !- Hour 4
  0,                                      !- Minute 4