
OS:Version,
  {6a567529-ef8c-4db3-864b-98cc6e6663a7}, !- Handle
  1.5.5;                                  !- Version Identifier

OS:ClimateZones,
  {135edfab-17e7-40db-a436-27d385a8cd6d}, !- Handle
  ,                                       !- Active Institution
  ,                                       !- Active Year
  ASHRAE,                                 !- Climate Zone Institution Name 1
  ANSI/ASHRAE Standard 169,               !- Climate Zone Document Name 1
  2006,                                   !- Climate Zone Document Year 1
  ,                                       !- Climate Zone Value 1
  CEC,                                    !- Climate Zone Institution Name 2
  California Climate Zone Descriptions,   !- Climate Zone Document Name 2
  1995,                                   !- Climate Zone Document Year 2
  ;                                       !- Climate Zone Value 2

OS:YearDescription,
  {513d8dda-86cb-442a-b01c-1f7f0e0ac70e}; !- Handle

OS:RadianceParameters,
  {270a96f1-3c86-4b75-a667-cdf22790e2c8}, !- Handle
  1,                                      !- Accumulated Rays per Record
  0,                                      !- Direct Threshold
  1,                                      !- Direct Certainty
  1,                                      !- Direct Jitter
  1,                                      !- Direct Pretest
  6,                                      !- Ambient Bounces VMX
  2,                                      !- Ambient Bounces DMX
  4050,                                   !- Ambient Divisions VMX
  512,                                    !- Ambient Divisions DMX
  256,                                    !- Ambient Supersamples
  0.001,                                  !- Limit Weight VMX
  0.001,                                  !- Limit Weight DMX
  500,                                    !- Klems Sampling Density
  146;                                    !- Sky Discretization Resolution

OS:SimulationControl,
  {2c487a4c-bac9-4ac5-b669-1e49d9da7c2b}, !- Handle
  ,                                       !- Do Zone Sizing Calculation
  ,                                       !- Do System Sizing Calculation
  ,                                       !- Do Plant Sizing Calculation
  No,                                     !- Run Simulation for Sizing Periods
  ,                                       !- Run Simulation for Weather File Run Periods
  0.04,                                   !- Loads Convergence Tolerance Value
  ,                                       !- Temperature Convergence Tolerance Value {deltaC}
  ,                                       !- Solar Distribution
  ,                                       !- Maximum Number of Warmup Days
  2;                                      !- Minimum Number of Warmup Days

OS:Sizing:Parameters,
  {dde5af6f-7923-4600-a28a-7556673a0266}, !- Handle
  1.25,                                   !- Heating Sizing Factor
  1.15;                                   !- Cooling Sizing Factor

OS:ProgramControl,
  {05027a99-f2b3-4aeb-afc6-1425fbb4371d}; !- Handle

OS:Timestep,
  {4ebc9f1e-4707-402e-9844-67eb1ffbd522}, !- Handle
  2;                                      !- Number of Timesteps per Hour

OS:OutputControl:ReportingTolerances,
  {65797aa2-06a9-45fe-b69d-bc6e060399d3}; !- Handle

OS:ConvergenceLimits,
  {9fc11aba-8822-4f3d-970c-46391ba4040d}; !- Handle

OS:ShadowCalculation,
  {ca758bea-4416-4626-9bba-3d8795c79bd6}, !- Handle
  7,                                      !- Calculation Frequency
  15000;                                  !- Maximum Figures in Shadow Overlap Calculations

OS:SurfaceConvectionAlgorithm:Inside,
  {aaabfc36-718a-4ab0-b622-f186ebb45230}, !- Handle
  TARP;                                   !- Algorithm

OS:SurfaceConvectionAlgorithm:Outside,
  {9a0a9f6f-4bbd-4b12-a121-9492a1fcd7d6}, !- Handle
  DOE-2;                                  !- Algorithm

OS:HeatBalanceAlgorithm,
  {9d93e563-e1e0-46d7-9e39-d1c8aceb7212}, !- Handle
  ConductionTransferFunction,             !- Algorithm
  200;                                    !- Surface Temperature Upper Limit {F}

OS:ZoneAirHeatBalanceAlgorithm,
  {8520d93e-310f-4696-9bcd-36228bfdd743}, !- Handle
  AnalyticalSolution;                     !- Algorithm

OS:ZoneAirContaminantBalance,
  {eb5fc3ae-fb22-4160-8fcb-3e3b22b000d3}; !- Handle

OS:ZoneCapacitanceMultiplier:ResearchSpecial,
  {4020ce4f-5a7a-4849-8028-8305d7b751b1}, !- Handle
  ,                                       !- Temperature Capacity Multiplier
  ,                                       !- Humidity Capacity Multiplier
  ;                                       !- Carbon Dioxide Capacity Multiplier

OS:RunPeriod,
  {28df894d-6af9-4fb8-8f56-df1753344aa3}, !- Handle
  Run Period 1,                           !- Name
  1,                                      !- Begin Month
  1,                                      !- Begin Day of Month
  12,                                     !- End Month
  31,                                     !- End Day of Month
  ,                                       !- Use Weather File Holidays and Special Days
  ,                                       !- Use Weather File Daylight Saving Period
  ,                                       !- Apply Weekend Holiday Rule
  ,                                       !- Use Weather File Rain Indicators
  ,                                       !- Use Weather File Snow Indicators
  ;                                       !- Number of Times Runperiod to be Repeated

OS:Building,
  {bf305633-c5a1-4881-9edf-ca5e1a8e1274}, !- Handle
  Building 1,                             !- Name
  ,                                       !- Building Sector Type
  ,                                       !- North Axis {deg}
  ,                                       !- Nominal Floor to Floor Height {m}
  ,                                       !- Space Type Name
  ,                                       !- Default Construction Set Name
  {1534e584-bed5-4196-878e-4b336e51d58e}, !- Default Schedule Set Name
  ,                                       !- Standards Number of Stories
  ,                                       !- Standards Number of Above Ground Stories
  AssistedLiving;                         !- Standards Building Type

OS:LifeCycleCost:Parameters,
  {231cf8a0-f0e7-4251-a99f-11f0d464e661}, !- Handle
  FEMP,                                   !- Analysis Type
  ,                                       !- Discounting Convention
  ,                                       !- Inflation Approach
  ,                                       !- Real Discount Rate
  ,                                       !- Nominal Discount Rate
  ,                                       !- Inflation
  ,                                       !- Base Date Month
  ,                                       !- Base Date Year
  ,                                       !- Service Date Month
  ,                                       !- Service Date Year
  ,                                       !- Length of Study Period in Years
  ,                                       !- Tax Rate
  ,                                       !- Depreciation Method
  Yes;                                    !- Use NIST Fuel Escalation Rates

OS:Facility,
  {3ba8e45b-b833-44eb-a723-ea6c3946dc96}; !- Handle

OS:SpaceType,
  {4d9118ec-38fb-4462-9638-ea5668056821}, !- Handle
  AssistedLiving|BlendPat|DOE Ref Pre-1980|ASHRAE 169-2006-5A, !- Name
  {844cad97-e006-473e-a9bb-4900b2b3407d}, !- Default Construction Set Name
  ,                                       !- Default Schedule Set Name
  {211fd83b-e2ac-4f2a-b8f0-d90965500f1a}, !- Group Rendering Name
  {1231e136-9a61-41f1-99b7-130f0cd3042b}, !- Design Specification Outdoor Air Object Name
  AssistedLiving,                         !- Standards Building Type
  BlendPat;                               !- Standards Space Type

OS:Rendering:Color,
  {211fd83b-e2ac-4f2a-b8f0-d90965500f1a}, !- Handle
  Rendering Color 1,                      !- Name
  78,                                     !- Rendering Red Value
  167,                                    !- Rendering Green Value
  222;                                    !- Rendering Blue Value

OS:SpaceType,
  {18a7142a-8a9c-4e06-add3-65a5ef6673cb}, !- Handle
  AssistedLiving|BlendCom|DOE Ref Pre-1980|ASHRAE 169-2006-5A, !- Name
  {844cad97-e006-473e-a9bb-4900b2b3407d}, !- Default Construction Set Name
  ,                                       !- Default Schedule Set Name
  {293720ed-3f67-4798-a7f8-978d81cf2f84}, !- Group Rendering Name
  {5c1ea949-f16d-4c4c-b504-ed9764a82bf1}, !- Design Specification Outdoor Air Object Name
  AssistedLiving,                         !- Standards Building Type
  BlendCom;                               !- Standards Space Type

OS:Rendering:Color,
  {293720ed-3f67-4798-a7f8-978d81cf2f84}, !- Handle
  Rendering Color 2,                      !- Name
  31,                                     !- Rendering Red Value
  169,                                    !- Rendering Green Value
  34;                                     !- Rendering Blue Value

OS:SpaceType,
  {ff2f984e-b614-4f80-a99b-2039d25b1f81}, !- Handle
  AssistedLiving|Kitchen|DOE Ref Pre-1980|ASHRAE 169-2006-5A, !- Name
  {844cad97-e006-473e-a9bb-4900b2b3407d}, !- Default Construction Set Name
  {acde422e-8c41-4cdd-a6bd-3bde4d6f2525}, !- Default Schedule Set Name
  {534afac2-a8cb-44b1-960d-f8f1b88973a9}, !- Group Rendering Name
  {1176fd8f-710e-4d17-bb8d-9d189d8590b5}, !- Design Specification Outdoor Air Object Name
  AssistedLiving,                         !- Standards Building Type
  Kitchen;                                !- Standards Space Type

OS:Rendering:Color,
  {534afac2-a8cb-44b1-960d-f8f1b88973a9}, !- Handle
  Rendering Color 3,                      !- Name
  78,                                     !- Rendering Red Value
  222,                                    !- Rendering Green Value
  133;                                    !- Rendering Blue Value

OS:Schedule:Ruleset,
  {b8ff950c-01c3-40ce-9ae1-816bffa106d1}, !- Handle
  0600|2200|AssistedLiving|default|hoo,   !- Name
  {ec747195-3975-4496-b866-0c0c05b95ee8}, !- Schedule Type Limits Name
  {9b8dbcc1-6d1c-4c40-b728-4dca974f03e6}, !- Default Day Schedule Name
  {4bbd654f-6835-46c4-8e69-38281274c549}, !- Summer Design Day Schedule Name
  {1832136f-ad6f-4bca-a377-11f720bb6be1}; !- Winter Design Day Schedule Name

OS:Schedule:Day,
  {9b8dbcc1-6d1c-4c40-b728-4dca974f03e6}, !- Handle
  0600|2200|AssistedLiving|default|hoo Schedule Week Day, !- Name
  {ec747195-3975-4496-b866-0c0c05b95ee8}, !- Schedule Type Limits Name
  ,                                       !- Interpolate to Timestep
  6,                                      !- Hour 1
  0,                                      !- Minute 1
  0,                                      !- Value Until Time 1
  22,                                     !- Hour 2
  0,                                      !- Minute 2
  1,                                      !- Value Until Time 2
  24,                                     !- Hour 3
  0,                                      !- Minute 3
  0;                                      !- Value Until Time 3

OS:Schedule:Day,
  {8c2d0953-7700-4a50-a5b6-1cf407b23668}, !- Handle
  Schedule Day 2,                         !- Name
  ,                                       !- Schedule Type Limits Name
  ,                                       !- Interpolate to Timestep
  24,                                     !- Hour 1
  0,                                      !- Minute 1
  0;                                      !- Value Until Time 1

OS:Schedule:Day,
  {1832136f-ad6f-4bca-a377-11f720bb6be1}, !- Handle
  0600|2200|AssistedLiving|default|hoo Winter Design Day, !- Name
  {ec747195-3975-4496-b866-0c0c05b95ee8}, !- Schedule Type Limits Name
  ,                                       !- Interpolate to Timestep
  24,                                     !- Hour 1
  0,                                      !- Minute 1
  0;                                      !- Value Until Time 1

OS:Schedule:Day,
  {c7cadef3-ab8d-4b64-84c3-c50ea4bee398}, !- Handle
  Schedule Day 3,                         !- Name
  ,                                       !- Schedule Type Limits Name
  ,                                       !- Interpolate to Timestep
  24,                                     !- Hour 1
  0,                                      !- Minute 1
  0;                                      !- Value Until Time 1

OS:Schedule:Day,
  {4bbd654f-6835-46c4-8e69-38281274c549}, !- Handle
  0600|2200|AssistedLiving|default|hoo Summer Design Day, !- Name
  {ec747195-3975-4496-b866-0c0c05b95ee8}, !- Schedule Type Limits Name
  ,                                       !- Interpolate to Timestep
  24,                                     !- Hour 1
  0,                                      !- Minute 1
  1;                                      !- Value Until Time 1

OS:DefaultScheduleSet,
  {1534e584-bed5-4196-878e-4b336e51d58e}, !- Handle
  Building Hours of Operation,            !- Name
  {b8ff950c-01c3-40ce-9ae1-816bffa106d1}, !- Hours of Operation Schedule Name
  ,                                       !- Number of People Schedule Name
  ,                                       !- People Activity Level Schedule Name
  ,                                       !- Lighting Schedule Name
  ,                                       !- Electric Equipment Schedule Name
  ,                                       !- Gas Equipment Schedule Name
  ,                                       !- Hot Water Equipment Schedule Name
  ,                                       !- Infiltration Schedule Name
  ,                                       !- Steam Equipment Schedule Name
  ;                                       !- Other Equipment Schedule Name

OS:ScheduleTypeLimits,
  {ec747195-3975-4496-b866-0c0c05b95ee8}, !- Handle
  OnOff,                                  !- Name
  0,                                      !- Lower Limit Value {BasedOnField A4}
  1,                                      !- Upper Limit Value {BasedOnField A4}
  Discrete,                               !- Numeric Type
  Availability;                           !- Unit Type

OS:Schedule:Ruleset,
  {e932b352-e509-46b5-aaef-1e521117ad62}, !- Handle
  0600|2200|AssistedLiving|PatRoom|elec_equip, !- Name
  {27c69381-d660-44f4-81a8-da37517efc02}, !- Schedule Type Limits Name
  {581733b1-0995-417f-94f0-c0c76b41c828}, !- Default Day Schedule Name
  {e484daeb-75e9-4ae6-be48-6eb76ffdb74c}, !- Summer Design Day Schedule Name
  {068fa66d-0d58-459f-8409-f386416a455e}; !- Winter Design Day Schedule Name

OS:ScheduleTypeLimits,
  {27c69381-d660-44f4-81a8-da37517efc02}, !- Handle
  Equipment Schedule Type Limits,         !- Name
  0,                                      !- Lower Limit Value {BasedOnField A4}
  1,                                      !- Upper Limit Value {BasedOnField A4}
  Continuous,                             !- Numeric Type
  Dimensionless;                          !- Unit Type

OS:Schedule:Day,
  {581733b1-0995-417f-94f0-c0c76b41c828}, !- Handle
  0600|2200|AssistedLiving|PatRoom|elec_equip |default, !- Name
  {27c69381-d660-44f4-81a8-da37517efc02}, !- Schedule Type Limits Name
  ,                                       !- Interpolate to Timestep
  8,                                      !- Hour 1
  0,                                      !- Minute 1
  0.5,                                    !- Value Until Time 1
  18,                                     !- Hour 2
  0,                                      !- Minute 2
  1,                                      !- Value Until Time 2
  20,                                     !- Hour 3
  0,                                      !- Minute 3
  0.8,                                    !- Value Until Time 3
  24,                                     !- Hour 4
  0,                                      !- Minute 4
  0.5;                                    !- Value Until Time 4

OS:Schedule:Day,
  {e484daeb-75e9-4ae6-be48-6eb76ffdb74c}, !- Handle
  0600|2200|AssistedLiving|PatRoom|elec_equip Summer Design Day, !- Name
  {27c69381-d660-44f4-81a8-da37517efc02}, !- Schedule Type Limits Name
  ,                                       !- Interpolate to Timestep
  24,                                     !- Hour 1
  0,                                      !- Minute 1
  1;                                      !- Value Until Time 1

OS:Schedule:Day,
  {068fa66d-0d58-459f-8409-f386416a455e}, !- Handle
  0600|2200|AssistedLiving|PatRoom|elec_equip Winter Design Day, !- Name
  {27c69381-d660-44f4-81a8-da37517efc02}, !- Schedule Type Limits Name
  ,                                       !- Interpolate to Timestep
  24,                                     !- Hour 1
  0,                                      !- Minute 1
  0.5;                                    !- Value Until Time 1

OS:Schedule:Ruleset,
  {69945ff9-582a-4ab1-9a9b-1a003084f6b7}, !- Handle
  0600|2200|AssistedLiving|Kitchen|elec_equip, !- Name
  {27c69381-d660-44f4-81a8-da37517efc02}, !- Schedule Type Limits Name
  {50a30d46-fd3a-4335-a9eb-a5c9b288b29c}, !- Default Day Schedule Name
  {9a8ef120-5d40-4e1f-9a72-67b38b54e488}, !- Summer Design Day Schedule Name
  {dbc4cbe7-f005-4c12-850c-095fc652187c}; !- Winter Design Day Schedule Name

OS:Schedule:Day,
  {50a30d46-fd3a-4335-a9eb-a5c9b288b29c}, !- Handle
  0600|2200|AssistedLiving|Kitchen|elec_equip |default, !- Name
  {27c69381-d660-44f4-81a8-da37517efc02}, !- Schedule Type Limits Name
  ,                                       !- Interpolate to Timestep
  7,                                      !- Hour 1
  0,                                      !- Minute 1
  0.02,                                   !- Value Until Time 1
  8,                                      !- Hour 2
  0,                                      !- Minute 2
  0.05,                                   !- Value Until Time 2
  9,                                      !- Hour 3
  0,                                      !- Minute 3
  0.1,                                    !- Value Until Time 3
  10,                                     !- Hour 4
  0,                                      !- Minute 4
  0.15,                                   !- Value Until Time 4
  11,                                     !- Hour 5
  0,                                      !- Minute 5
  0.2,                                    !- Value Until Time 5
  12,                                     !- Hour 6
  0,                                      !- Minute 6
  0.15,                                   !- Value Until Time 6
  13,                                     !- Hour 7
  0,                                      !- Minute 7
  0.25,                                   !- Value Until Time 7
  14,                                     !- Hour 8
  0,                                      !- Minute 8
  0.2,                                    !- Value Until Time 8
  15,                                     !- Hour 9
  0,                                      !- Minute 9
  0.15,                                   !- Value Until Time 9
  16,                                     !- Hour 10
  0,                                      !- Minute 10
  0.2,                                    !- Value Until Time 10
  19,                                     !- Hour 11
  0,                                      !- Minute 11
  0.3,                                    !- Value Until Time 11
  21,                                     !- Hour 12
  0,                                      !- Minute 12
  0.2,                                    !- Value Until Time 12
  22,                                     !- Hour 13
  0,                                      !- Minute 13
  0.15,                                   !- Value Until Time 13
  23,                                     !- Hour 14
  0,                                      !- Minute 14
  0.1,                                    !- Value Until Time 14
  24,                                     !- Hour 15
  0,                                      !- Minute 15
  0.05;                                   !- Value Until Time 15

OS:Schedule:Day,
  {9a8ef120-5d40-4e1f-9a72-67b38b54e488}, !- Handle
  0600|2200|AssistedLiving|Kitchen|elec_equip Summer Design Day, !- Name
  {27c69381-d660-44f4-81a8-da37517efc02}, !- Schedule Type Limits Name
  ,                                       !- Interpolate to Timestep
  7,                                      !- Hour 1
  0,                                      !- Minute 1
  0.02,                                   !- Value Until Time 1
  8,                                      !- Hour 2
  0,                                      !- Minute 2
  0.05,                                   !- Value Until Time 2
  9,                                      !- Hour 3
  0,                                      !- Minute 3
  0.1,                                    !- Value Until Time 3
  10,                                     !- Hour 4
  0,                                      !- Minute 4
  0.15,                                   !- Value Until Time 4
  11,                                     !- Hour 5
  0,                                      !- Minute 5
  0.2,                                    !- Value Until Time 5
  12,                                     !- Hour 6
  0,                                      !- Minute 6
  0.15,                                   !- Value Until Time 6
  13,                                     !- Hour 7
  0,                                      !- Minute 7
  0.25,                                   !- Value Until Time 7
  14,                                     !- Hour 8
  0,                                      !- Minute 8
  0.2,                                    !- Value Until Time 8
  15,                                     !- Hour 9
  0,                                      !- Minute 9
  0.15,                                   !- Value Until Time 9
  16,                                     !- Hour 10
  0,                                      !- Minute 10
  0.2,                                    !- Value Until Time 10
  19,                                     !- Hour 11
  0,                                      !- Minute 11
  1,                                      !- Value Until Time 11
  21,                                     !- Hour 12
  0,                                      !- Minute 12
  0.2,                                    !- Value Until Time 12
  22,                                     !- Hour 13
  0,                                      !- Minute 13
  0.15,                                   !- Value Until Time 13
  23,                                     !- Hour 14
  0,                                      !- Minute 14
  0.1,                                    !- Value Until Time 14
  24,                                     !- Hour 15
  0,                                      !- Minute 15
  0.05;                                   !- Value Until Time 15

OS:Schedule:Day,
  {dbc4cbe7-f005-4c12-850c-095fc652187c}, !- Handle
  0600|2200|AssistedLiving|Kitchen|elec_equip Winter Design Day, !- Name
  {27c69381-d660-44f4-81a8-da37517efc02}, !- Schedule Type Limits Name
  ,                                       !- Interpolate to Timestep
  24,                                     !- Hour 1
  0,                                      !- Minute 1
  0.02;                                   !- Value Until Time 1

OS:Schedule:Ruleset,
  {ac9c4ad7-9ff3-4aa6-b774-9b6513aed608}, !- Handle
  0600|2200|AssistedLiving|PatCorridor|elec_equip, !- Name
  {27c69381-d660-44f4-81a8-da37517efc02}, !- Schedule Type Limits Name
  {c6c07ab4-75b2-45c4-8479-b630d967e61d}, !- Default Day Schedule Name
  {7afb6634-2025-40b2-ba92-21d4603aa602}, !- Summer Design Day Schedule Name
  {a985c402-24d2-463e-8c20-b07efed67fd3}; !- Winter Design Day Schedule Name

OS:Schedule:Day,
  {c6c07ab4-75b2-45c4-8479-b630d967e61d}, !- Handle
  0600|2200|AssistedLiving|PatCorridor|elec_equip |default, !- Name
  {27c69381-d660-44f4-81a8-da37517efc02}, !- Schedule Type Limits Name
  ,                                       !- Interpolate to Timestep
  8,                                      !- Hour 1
  0,                                      !- Minute 1
  0.5,                                    !- Value Until Time 1
  18,                                     !- Hour 2
  0,                                      !- Minute 2
  1,                                      !- Value Until Time 2
  20,                                     !- Hour 3
  0,                                      !- Minute 3
  0.8,                                    !- Value Until Time 3
  24,                                     !- Hour 4
  0,                                      !- Minute 4
  0.5;                                    !- Value Until Time 4

OS:Schedule:Day,
  {7afb6634-2025-40b2-ba92-21d4603aa602}, !- Handle
  0600|2200|AssistedLiving|PatCorridor|elec_equip Summer Design Day, !- Name
  {27c69381-d660-44f4-81a8-da37517efc02}, !- Schedule Type Limits Name
  ,                                       !- Interpolate to Timestep
  24,                                     !- Hour 1
  0,                                      !- Minute 1
  1;                                      !- Value Until Time 1

OS:Schedule:Day,
  {a985c402-24d2-463e-8c20-b07efed67fd3}, !- Handle
  0600|2200|AssistedLiving|PatCorridor|elec_equip Winter Design Day, !- Name
  {27c69381-d660-44f4-81a8-da37517efc02}, !- Schedule Type Limits Name
  ,                                       !- Interpolate to Timestep
  24,                                     !- Hour 1
  0,                                      !- Minute 1
  0.5;                                    !- Value Until Time 1

OS:Schedule:Ruleset,
  {5be296b9-0d92-402e-b06f-340c96f992f6}, !- Handle
  0600|2200|AssistedLiving|Kitchen|gas_equip, !- Name
  {27c69381-d660-44f4-81a8-da37517efc02}, !- Schedule Type Limits Name
  {f95f7350-4bac-40d9-8db5-33d2cc4ce830}, !- Default Day Schedule Name
  {328001e3-0a46-4aa2-8a9e-b8cccf99d8a1}, !- Summer Design Day Schedule Name
  {62154954-822f-46ca-aecf-98e4b3e83143}; !- Winter Design Day Schedule Name

OS:Schedule:Day,
  {f95f7350-4bac-40d9-8db5-33d2cc4ce830}, !- Handle
  0600|2200|AssistedLiving|Kitchen|gas_equip |default, !- Name
  {27c69381-d660-44f4-81a8-da37517efc02}, !- Schedule Type Limits Name
  ,                                       !- Interpolate to Timestep
  7,                                      !- Hour 1
  0,                                      !- Minute 1
  0.02,                                   !- Value Until Time 1
  8,                                      !- Hour 2
  0,                                      !- Minute 2
  0.05,                                   !- Value Until Time 2
  9,                                      !- Hour 3
  0,                                      !- Minute 3
  0.1,                                    !- Value Until Time 3
  10,                                     !- Hour 4
  0,                                      !- Minute 4
  0.15,                                   !- Value Until Time 4
  11,                                     !- Hour 5
  0,                                      !- Minute 5
  0.2,                                    !- Value Until Time 5
  12,                                     !- Hour 6
  0,                                      !- Minute 6
  0.15,                                   !- Value Until Time 6
  13,                                     !- Hour 7
  0,                                      !- Minute 7
  0.25,                                   !- Value Until Time 7
  14,                                     !- Hour 8
  0,                                      !- Minute 8
  0.2,                                    !- Value Until Time 8
  15,                                     !- Hour 9
  0,                                      !- Minute 9
  0.15,                                   !- Value Until Time 9
  16,                                     !- Hour 10
  0,                                      !- Minute 10
  0.2,                                    !- Value Until Time 10
  19,                                     !- Hour 11
  0,                                      !- Minute 11
  0.3,                                    !- Value Until Time 11
  21,                                     !- Hour 12
  0,                                      !- Minute 12
  0.2,                                    !- Value Until Time 12
  22,                                     !- Hour 13
  0,                                      !- Minute 13
  0.15,                                   !- Value Until Time 13
  23,                                     !- Hour 14
  0,                                      !- Minute 14
  0.1,                                    !- Value Until Time 14
  24,                                     !- Hour 15
  0,                                      !- Minute 15
  0.05;                                   !- Value Until Time 15

OS:Schedule:Day,
  {328001e3-0a46-4aa2-8a9e-b8cccf99d8a1}, !- Handle
  0600|2200|AssistedLiving|Kitchen|gas_equip Summer Design Day, !- Name
  {27c69381-d660-44f4-81a8-da37517efc02}, !- Schedule Type Limits Name
  ,                                       !- Interpolate to Timestep
  7,                                      !- Hour 1
  0,                                      !- Minute 1
  0.02,                                   !- Value Until Time 1
  8,                                      !- Hour 2
  0,                                      !- Minute 2
  0.05,                                   !- Value Until Time 2
  9,                                      !- Hour 3
  0,                                      !- Minute 3
  0.1,                                    !- Value Until Time 3
  10,                                     !- Hour 4
  0,                                      !- Minute 4