
OS:Version,
  {2fe6e2ed-4944-4193-a6be-277a809e86f5}, !- Handle
  1.5.5;                                  !- Version Identifier

OS:ClimateZones,
  {135edfab-17e7-40db-a436-27d385a8cd6d}, !- Handle
  ,                                       !- Active Institution
  ,                                       !- Active Year
  ASHRAE,                                 !- Climate Zone Institution Name 1
  ANSI/ASHRAE Standard 169,               !- Climate Zone Document Name 1
  2006,                                   !- Climate Zone Document Year 1
  ,                                       !- Climate Zone Value 1
  CEC,                                    !- Climate Zone Institution Name 2
  California Climate Zone Descriptions,   !- Climate Zone Document Name 2
  1995,                                   !- Climate Zone Document Year 2
  ;                                       !- Climate Zone Value 2

OS:YearDescription,
  {513d8dda-86cb-442a-b01c-1f7f0e0ac70e}; !- Handle

OS:RadianceParameters,
  {270a96f1-3c86-4b75-a667-cdf22790e2c8}, !- Handle
  1,                                      !- Accumulated Rays per Record
  0,                                      !- Direct Threshold
  1,                                      !- Direct Certainty
  1,                                      !- Direct Jitter
  1,                                      !- Direct Pretest
  6,                                      !- Ambient Bounces VMX
  2,                                      !- Ambient Bounces DMX
  4050,                                   !- Ambient Divisions VMX
  512,                                    !- Ambient Divisions DMX
  256,                                    !- Ambient Supersamples
  0.001,                                  !- Limit Weight VMX
  0.001,                                  !- Limit Weight DMX
  500,                                    !- Klems Sampling Density
  146;                                    !- Sky Discretization Resolution

OS:SimulationControl,
  {2c487a4c-bac9-4ac5-b669-1e49d9da7c2b}, !- Handle
  ,                                       !- Do Zone Sizing Calculation
  ,                                       !- Do System Sizing Calculation
  ,                                       !- Do Plant Sizing Calculation
  No,                                     !- Run Simulation for Sizing Periods
  ,                                       !- Run Simulation for Weather File Run Periods
  0.04,                                   !- Loads Convergence Tolerance Value
  ,                                       !- Temperature Convergence Tolerance Value {deltaC}
  ,                                       !- Solar Distribution
  ,                                       !- Maximum Number of Warmup Days
  2;                                      !- Minimum Number of Warmup Days

OS:Sizing:Parameters,
  {dde5af6f-7923-4600-a28a-7556673a0266}, !- Handle
  1.25,                                   !- Heating Sizing Factor
  1.15;                                   !- Cooling Sizing Factor

OS:ProgramControl,
  {05027a99-f2b3-4aeb-afc6-1425fbb4371d}; !- Handle

OS:Timestep,
  {4ebc9f1e-4707-402e-9844-67eb1ffbd522}, !- Handle
  2;                                      !- Number of Timesteps per Hour

OS:OutputControl:ReportingTolerances,
  {65797aa2-06a9-45fe-b69d-bc6e060399d3}; !- Handle

OS:ConvergenceLimits,
  {9fc11aba-8822-4f3d-970c-46391ba4040d}; !- Handle

OS:ShadowCalculation,
  {ca758bea-4416-4626-9bba-3d8795c79bd6}, !- Handle
  7,                                      !- Calculation Frequency
  15000;                                  !- Maximum Figures in Shadow Overlap Calculations

OS:SurfaceConvectionAlgorithm:Inside,
  {aaabfc36-718a-4ab0-b622-f186ebb45230}, !- Handle
  TARP;                                   !- Algorithm

OS:SurfaceConvectionAlgorithm:Outside,
  {9a0a9f6f-4bbd-4b12-a121-9492a1fcd7d6}, !- Handle
  DOE-2;                                  !- Algorithm

OS:HeatBalanceAlgorithm,
  {9d93e563-e1e0-46d7-9e39-d1c8aceb7212}, !- Handle
  ConductionTransferFunction,             !- Algorithm
  200;                                    !- Surface Temperature Upper Limit {F}

OS:ZoneAirHeatBalanceAlgorithm,
  {8520d93e-310f-4696-9bcd-36228bfdd743}, !- Handle
  AnalyticalSolution;                     !- Algorithm

OS:ZoneAirContaminantBalance,
  {eb5fc3ae-fb22-4160-8fcb-3e3b22b000d3}; !- Handle

OS:ZoneCapacitanceMultiplier:ResearchSpecial,
  {4020ce4f-5a7a-4849-8028-8305d7b751b1}, !- Handle
  ,                                       !- Temperature Capacity Multiplier
  ,                                       !- Humidity Capacity Multiplier
  ;                                       !- Carbon Dioxide Capacity Multiplier

OS:RunPeriod,
  {28df894d-6af9-4fb8-8f56-df1753344aa3}, !- Handle
  Run Period 1,                           !- Name
  1,                                      !- Begin Month
  1,                                      !- Begin Day of Month
  12,                                     !- End Month
  31,                                     !- End Day of Month
  ,                                       !- Use Weather File Holidays and Special Days
  ,                                       !- Use Weather File Daylight Saving Period
  ,                                       !- Apply Weekend Holiday Rule
  ,                                       !- Use Weather File Rain Indicators
  ,                                       !- Use Weather File Snow Indicators
  ;                                       !- Number of Times Runperiod to be Repeated

OS:Building,
  {bf305633-c5a1-4881-9edf-ca5e1a8e1274}, !- Handle
  Building 1,                             !- Name
  ,                                       !- Building Sector Type
  ,                                       !- North Axis {deg}
  ,                                       !- Nominal Floor to Floor Height {m}
  ,                                       !- Space Type Name
  ,                                       !- Default Construction Set Name
  {de2975bb-c1da-4cce-9fb5-96f7220c0e4a}, !- Default Schedule Set Name
  ,                                       !- Standards Number of Stories
  ,                                       !- Standards Number of Above Ground Stories
  AssistedLiving;                         !- Standards Building Type

OS:LifeCycleCost:Parameters,
  {231cf8a0-f0e7-4251-a99f-11f0d464e661}, !- Handle
  FEMP,                                   !- Analysis Type
  ,                                       !- Discounting Convention
  ,                                       !- Inflation Approach
  ,                                       !- Real Discount Rate
  ,                                       !- Nominal Discount Rate
  ,                                       !- Inflation
  ,                                       !- Base Date Month
  ,                                       !- Base Date Year
  ,                                       !- Service Date Month
  ,                                       !- Service Date Year
  ,                                       !- Length of Study Period in Years
  ,                                       !- Tax Rate
  ,                                       !- Depreciation Method
  Yes;                                    !- Use NIST Fuel Escalation Rates

OS:Facility,
  {3ba8e45b-b833-44eb-a723-ea6c3946dc96}; !- Handle

OS:SpaceType,
  {bc0483fc-5bd0-427d-becb-d02519568705}, !- Handle
  AssistedLiving|BlendPat|DOE Ref 1980-2004|ASHRAE 169-2006-5A, !- Name
  {3bfdb505-8525-456d-8d14-dc08e6654fbc}, !- Default Construction Set Name
  ,                                       !- Default Schedule Set Name
  {2bc24b7d-2492-4560-b162-cd6baa5bb7ba}, !- Group Rendering Name
  {1279f9c4-0cc6-44dd-8b70-88667f8e1a51}, !- Design Specification Outdoor Air Object Name
  AssistedLiving,                         !- Standards Building Type
  BlendPat;                               !- Standards Space Type

OS:Rendering:Color,
  {2bc24b7d-2492-4560-b162-cd6baa5bb7ba}, !- Handle
  Rendering Color 1,                      !- Name
  78,                                     !- Rendering Red Value
  167,                                    !- Rendering Green Value
  222;                                    !- Rendering Blue Value

OS:SpaceType,
  {98e7dde1-0cd5-481f-aac9-348424939d06}, !- Handle
  AssistedLiving|BlendCom|DOE Ref 1980-2004|ASHRAE 169-2006-5A, !- Name
  {3bfdb505-8525-456d-8d14-dc08e6654fbc}, !- Default Construction Set Name
  ,                                       !- Default Schedule Set Name
  {5d9f47e2-d737-4048-b85c-18440276d76b}, !- Group Rendering Name
  {c63a0614-84f9-4ab0-bdb3-61029f9a72d0}, !- Design Specification Outdoor Air Object Name
  AssistedLiving,                         !- Standards Building Type
  BlendCom;                               !- Standards Space Type

OS:Rendering:Color,
  {5d9f47e2-d737-4048-b85c-18440276d76b}, !- Handle
  Rendering Color 2,                      !- Name
  31,                                     !- Rendering Red Value
  169,                                    !- Rendering Green Value
  34;                                     !- Rendering Blue Value

OS:SpaceType,
  {ee780b86-2380-4fca-a3f0-3bc1b6a9c41f}, !- Handle
  AssistedLiving|Kitchen|DOE Ref 1980-2004|ASHRAE 169-2006-5A, !- Name
  {3bfdb505-8525-456d-8d14-dc08e6654fbc}, !- Default Construction Set Name
  {55154e37-0ecd-4e81-8b33-548418671921}, !- Default Schedule Set Name
  {179163b7-699a-46ae-9842-ea1eea1bb314}, !- Group Rendering Name
  {2d07b6d9-3c8c-4497-b2aa-7fe483ac7455}, !- Design Specification Outdoor Air Object Name
  AssistedLiving,                         !- Standards Building Type
  Kitchen;                                !- Standards Space Type

OS:Rendering:Color,
  {179163b7-699a-46ae-9842-ea1eea1bb314}, !- Handle
  Rendering Color 3,                      !- Name
  78,                                     !- Rendering Red Value
  222,                                    !- Rendering Green Value
  133;                                    !- Rendering Blue Value

OS:Schedule:Ruleset,
  {ddabceb1-ed63-4f30-b7f0-159fb0323023}, !- Handle
  0600|2200|AssistedLiving|default|hoo,   !- Name
  {7f06913f-c1c1-4ba9-8715-bd1ef6ac36a5}, !- Schedule Type Limits Name
  {41358573-6e52-487e-bd53-e5ede0307514}, !- Default Day Schedule Name
  {a11c1635-a8a0-4834-b317-53163dc57266}, !- Summer Design Day Schedule Name
  {6ea2b716-9360-4d2b-bca9-05c6d4425f28}; !- Winter Design Day Schedule Name

OS:Schedule:Day,
  {41358573-6e52-487e-bd53-e5ede0307514}, !- Handle
  0600|2200|AssistedLiving|default|hoo Schedule Week Day, !- Name
  {7f06913f-c1c1-4ba9-8715-bd1ef6ac36a5}, !- Schedule Type Limits Name
  ,                                       !- Interpolate to Timestep
  6,                                      !- Hour 1
  0,                                      !- Minute 1
  0,                                      !- Value Until Time 1
  22,                                     !- Hour 2
  0,                                      !- Minute 2
  1,                                      !- Value Until Time 2
  24,                                     !- Hour 3
  0,                                      !- Minute 3
  0;                                      !- Value Until Time 3

OS:Schedule:Day,
  {c77e0c00-be7b-4513-aa49-02e3d6c27a92}, !- Handle
  Schedule Day 2,                         !- Name
  ,                                       !- Schedule Type Limits Name
  ,                                       !- Interpolate to Timestep
  24,                                     !- Hour 1
  0,                                      !- Minute 1
  0;                                      !- Value Until Time 1

OS:Schedule:Day,
  {6ea2b716-9360-4d2b-bca9-05c6d4425f28}, !- Handle
  0600|2200|AssistedLiving|default|hoo Winter Design Day, !- Name
  {7f06913f-c1c1-4ba9-8715-bd1ef6ac36a5}, !- Schedule Type Limits Name
  ,                                       !- Interpolate to Timestep
  24,                                     !- Hour 1
  0,                                      !- Minute 1
  0;                                      !- Value Until Time 1

OS:Schedule:Day,
  {a5a1acb7-f5c0-41f0-872d-147d3675218f}, !- Handle
  Schedule Day 3,                         !- Name
  ,                                       !- Schedule Type Limits Name
  ,                                       !- Interpolate to Timestep
  24,                                     !- Hour 1
  0,                                      !- Minute 1
  0;                                      !- Value Until Time 1

OS:Schedule:Day,
  {a11c1635-a8a0-4834-b317-53163dc57266}, !- Handle
  0600|2200|AssistedLiving|default|hoo Summer Design Day, !- Name
  {7f06913f-c1c1-4ba9-8715-bd1ef6ac36a5}, !- Schedule Type Limits Name
  ,                                       !- Interpolate to Timestep
  24,                                     !- Hour 1
  0,                                      !- Minute 1
  1;                                      !- Value Until Time 1

OS:DefaultScheduleSet,
  {de2975bb-c1da-4cce-9fb5-96f7220c0e4a}, !- Handle
  Building Hours of Operation,            !- Name
  {ddabceb1-ed63-4f30-b7f0-159fb0323023}, !- Hours of Operation Schedule Name
  ,                                       !- Number of People Schedule Name
  ,                                       !- People Activity Level Schedule Name
  ,                                       !- Lighting Schedule Name
  ,                                       !- Electric Equipment Schedule Name
  ,                                       !- Gas Equipment Schedule Name
  ,                                       !- Hot Water Equipment Schedule Name
  ,                                       !- Infiltration Schedule Name
  ,                                       !- Steam Equipment Schedule Name
  ;                                       !- Other Equipment Schedule Name

OS:ScheduleTypeLimits,
  {7f06913f-c1c1-4ba9-8715-bd1ef6ac36a5}, !- Handle
  OnOff,                                  !- Name
  0,                                      !- Lower Limit Value {BasedOnField A4}
  1,                                      !- Upper Limit Value {BasedOnField A4}
  Discrete,                               !- Numeric Type
  Availability;                           !- Unit Type

OS:Schedule:Ruleset,
  {e0bc0979-02ab-41c0-9adb-7f85686e4343}, !- Handle
  0600|2200|AssistedLiving|PatRoom|elec_equip, !- Name
  {349aff77-b446-455b-8ee4-b682de03145e}, !- Schedule Type Limits Name
  {f758268c-f885-4a00-ad11-1b772db77f38}, !- Default Day Schedule Name
  {7af7908a-50a6-403d-af4a-5227d2eae6be}, !- Summer Design Day Schedule Name
  {3decbcc1-c425-460c-aacf-df37410411c7}; !- Winter Design Day Schedule Name

OS:ScheduleTypeLimits,
  {349aff77-b446-455b-8ee4-b682de03145e}, !- Handle
  Equipment Schedule Type Limits,         !- Name
  0,                                      !- Lower Limit Value {BasedOnField A4}
  1,                                      !- Upper Limit Value {BasedOnField A4}
  Continuous,                             !- Numeric Type
  Dimensionless;                          !- Unit Type

OS:Schedule:Day,
  {f758268c-f885-4a00-ad11-1b772db77f38}, !- Handle
  0600|2200|AssistedLiving|PatRoom|elec_equip |default, !- Name
  {349aff77-b446-455b-8ee4-b682de03145e}, !- Schedule Type Limits Name
  ,                                       !- Interpolate to Timestep
  8,                                      !- Hour 1
  0,                                      !- Minute 1
  0.5,                                    !- Value Until Time 1
  18,                                     !- Hour 2
  0,                                      !- Minute 2
  1,                                      !- Value Until Time 2
  20,                                     !- Hour 3
  0,                                      !- Minute 3
  0.8,                                    !- Value Until Time 3
  24,                                     !- Hour 4
  0,                                      !- Minute 4
  0.5;                                    !- Value Until Time 4

OS:Schedule:Day,
  {7af7908a-50a6-403d-af4a-5227d2eae6be}, !- Handle
  0600|2200|AssistedLiving|PatRoom|elec_equip Summer Design Day, !- Name
  {349aff77-b446-455b-8ee4-b682de03145e}, !- Schedule Type Limits Name
  ,                                       !- Interpolate to Timestep
  24,                                     !- Hour 1
  0,                                      !- Minute 1
  1;                                      !- Value Until Time 1

OS:Schedule:Day,
  {3decbcc1-c425-460c-aacf-df37410411c7}, !- Handle
  0600|2200|AssistedLiving|PatRoom|elec_equip Winter Design Day, !- Name
  {349aff77-b446-455b-8ee4-b682de03145e}, !- Schedule Type Limits Name
  ,                                       !- Interpolate to Timestep
  24,                                     !- Hour 1
  0,                                      !- Minute 1
  0.5;                                    !- Value Until Time 1

OS:Schedule:Ruleset,
  {f50db779-a058-4072-9373-688a183c875d}, !- Handle
  0600|2200|AssistedLiving|Kitchen|elec_equip, !- Name
  {349aff77-b446-455b-8ee4-b682de03145e}, !- Schedule Type Limits Name
  {d83c10be-08d5-4e02-94e8-aa33f67c574c}, !- Default Day Schedule Name
  {1df679e0-ca54-4bc7-b78c-4a5b9db99539}, !- Summer Design Day Schedule Name
  {40660c04-7f5d-4066-a3a8-b7bdca0c986a}; !- Winter Design Day Schedule Name

OS:Schedule:Day,
  {d83c10be-08d5-4e02-94e8-aa33f67c574c}, !- Handle
  0600|2200|AssistedLiving|Kitchen|elec_equip |default, !- Name
  {349aff77-b446-455b-8ee4-b682de03145e}, !- Schedule Type Limits Name
  ,                                       !- Interpolate to Timestep
  7,                                      !- Hour 1
  0,                                      !- Minute 1
  0.02,                                   !- Value Until Time 1
  8,                                      !- Hour 2
  0,                                      !- Minute 2
  0.05,                                   !- Value Until Time 2
  9,                                      !- Hour 3
  0,                                      !- Minute 3
  0.1,                                    !- Value Until Time 3
  10,                                     !- Hour 4
  0,                                      !- Minute 4
  0.15,                                   !- Value Until Time 4
  11,                                     !- Hour 5
  0,                                      !- Minute 5
  0.2,                                    !- Value Until Time 5
  12,                                     !- Hour 6
  0,                                      !- Minute 6
  0.15,                                   !- Value Until Time 6
  13,                                     !- Hour 7
  0,                                      !- Minute 7
  0.25,                                   !- Value Until Time 7
  14,                                     !- Hour 8
  0,                                      !- Minute 8
  0.2,                                    !- Value Until Time 8
  15,                                     !- Hour 9
  0,                                      !- Minute 9
  0.15,                                   !- Value Until Time 9
  16,                                     !- Hour 10
  0,                                      !- Minute 10
  0.2,                                    !- Value Until Time 10
  19,                                     !- Hour 11
  0,                                      !- Minute 11
  0.3,                                    !- Value Until Time 11
  21,                                     !- Hour 12
  0,                                      !- Minute 12
  0.2,                                    !- Value Until Time 12
  22,                                     !- Hour 13
  0,                                      !- Minute 13
  0.15,                                   !- Value Until Time 13
  23,                                     !- Hour 14
  0,                                      !- Minute 14
  0.1,                                    !- Value Until Time 14
  24,                                     !- Hour 15
  0,                                      !- Minute 15
  0.05;                                   !- Value Until Time 15

OS:Schedule:Day,
  {1df679e0-ca54-4bc7-b78c-4a5b9db99539}, !- Handle
  0600|2200|AssistedLiving|Kitchen|elec_equip Summer Design Day, !- Name
  {349aff77-b446-455b-8ee4-b682de03145e}, !- Schedule Type Limits Name
  ,                                       !- Interpolate to Timestep
  7,                                      !- Hour 1
  0,                                      !- Minute 1
  0.02,                                   !- Value Until Time 1
  8,                                      !- Hour 2
  0,                                      !- Minute 2
  0.05,                                   !- Value Until Time 2
  9,                                      !- Hour 3
  0,                                      !- Minute 3
  0.1,                                    !- Value Until Time 3
  10,                                     !- Hour 4
  0,                                      !- Minute 4
  0.15,                                   !- Value Until Time 4
  11,                                     !- Hour 5
  0,                                      !- Minute 5
  0.2,                                    !- Value Until Time 5
  12,                                     !- Hour 6
  0,                                      !- Minute 6
  0.15,                                   !- Value Until Time 6
  13,                                     !- Hour 7
  0,                                      !- Minute 7
  0.25,                                   !- Value Until Time 7
  14,                                     !- Hour 8
  0,                                      !- Minute 8
  0.2,                                    !- Value Until Time 8
  15,                                     !- Hour 9
  0,                                      !- Minute 9
  0.15,                                   !- Value Until Time 9
  16,                                     !- Hour 10
  0,                                      !- Minute 10
  0.2,                                    !- Value Until Time 10
  19,                                     !- Hour 11
  0,                                      !- Minute 11
  1,                                      !- Value Until Time 11
  21,                                     !- Hour 12
  0,                                      !- Minute 12
  0.2,                                    !- Value Until Time 12
  22,                                     !- Hour 13
  0,                                      !- Minute 13
  0.15,                                   !- Value Until Time 13
  23,                                     !- Hour 14
  0,                                      !- Minute 14
  0.1,                                    !- Value Until Time 14
  24,                                     !- Hour 15
  0,                                      !- Minute 15
  0.05;                                   !- Value Until Time 15

OS:Schedule:Day,
  {40660c04-7f5d-4066-a3a8-b7bdca0c986a}, !- Handle
  0600|2200|AssistedLiving|Kitchen|elec_equip Winter Design Day, !- Name
  {349aff77-b446-455b-8ee4-b682de03145e}, !- Schedule Type Limits Name
  ,                                       !- Interpolate to Timestep
  24,                                     !- Hour 1
  0,                                      !- Minute 1
  0.02;                                   !- Value Until Time 1

OS:Schedule:Ruleset,
  {cffb293d-51eb-43cc-9103-e8bacd0550a5}, !- Handle
  0600|2200|AssistedLiving|PatCorridor|elec_equip, !- Name
  {349aff77-b446-455b-8ee4-b682de03145e}, !- Schedule Type Limits Name
  {1a2a0107-ead3-44ae-b432-f1698e8e19fa}, !- Default Day Schedule Name
  {7d61bdd8-f1fc-4662-bc4b-54080e257f96}, !- Summer Design Day Schedule Name
  {88bcff91-471e-4d90-9f9f-35aa905abcd9}; !- Winter Design Day Schedule Name

OS:Schedule:Day,
  {1a2a0107-ead3-44ae-b432-f1698e8e19fa}, !- Handle
  0600|2200|AssistedLiving|PatCorridor|elec_equip |default, !- Name
  {349aff77-b446-455b-8ee4-b682de03145e}, !- Schedule Type Limits Name
  ,                                       !- Interpolate to Timestep
  8,                                      !- Hour 1
  0,                                      !- Minute 1
  0.5,                                    !- Value Until Time 1
  18,                                     !- Hour 2
  0,                                      !- Minute 2
  1,                                      !- Value Until Time 2
  20,                                     !- Hour 3
  0,                                      !- Minute 3
  0.8,                                    !- Value Until Time 3
  24,                                     !- Hour 4
  0,                                      !- Minute 4
  0.5;                                    !- Value Until Time 4

OS:Schedule:Day,
  {7d61bdd8-f1fc-4662-bc4b-54080e257f96}, !- Handle
  0600|2200|AssistedLiving|PatCorridor|elec_equip Summer Design Day, !- Name
  {349aff77-b446-455b-8ee4-b682de03145e}, !- Schedule Type Limits Name
  ,                                       !- Interpolate to Timestep
  24,                                     !- Hour 1
  0,                                      !- Minute 1
  1;                                      !- Value Until Time 1

OS:Schedule:Day,
  {88bcff91-471e-4d90-9f9f-35aa905abcd9}, !- Handle
  0600|2200|AssistedLiving|PatCorridor|elec_equip Winter Design Day, !- Name
  {349aff77-b446-455b-8ee4-b682de03145e}, !- Schedule Type Limits Name
  ,                                       !- Interpolate to Timestep
  24,                                     !- Hour 1
  0,                                      !- Minute 1
  0.5;                                    !- Value Until Time 1

OS:Schedule:Ruleset,
  {d24ba327-7fc0-4b4e-88f1-ed8713380bb2}, !- Handle
  0600|2200|AssistedLiving|Kitchen|gas_equip, !- Name
  {349aff77-b446-455b-8ee4-b682de03145e}, !- Schedule Type Limits Name
  {ed69b4c0-d687-4914-9861-90ab3178d979}, !- Default Day Schedule Name
  {200aa7ae-2d38-4734-b137-d9c912e4e0ce}, !- Summer Design Day Schedule Name
  {dff3d839-f2f7-41cd-a4c3-c5cfecbc7fd8}; !- Winter Design Day Schedule Name

OS:Schedule:Day,
  {ed69b4c0-d687-4914-9861-90ab3178d979}, !- Handle
  0600|2200|AssistedLiving|Kitchen|gas_equip |default, !- Name
  {349aff77-b446-455b-8ee4-b682de03145e}, !- Schedule Type Limits Name
  ,                                       !- Interpolate to Timestep
  7,                                      !- Hour 1
  0,                                      !- Minute 1
  0.02,                                   !- Value Until Time 1
  8,                                      !- Hour 2
  0,                                      !- Minute 2
  0.05,                                   !- Value Until Time 2
  9,                                      !- Hour 3
  0,                                      !- Minute 3
  0.1,                                    !- Value Until Time 3
  10,                                     !- Hour 4
  0,                                      !- Minute 4
  0.15,                                   !- Value Until Time 4
  11,                                     !- Hour 5
  0,                                      !- Minute 5
  0.2,                                    !- Value Until Time 5
  12,                                     !- Hour 6
  0,                                      !- Minute 6
  0.15,                                   !- Value Until Time 6
  13,                                     !- Hour 7
  0,                                      !- Minute 7
  0.25,                                   !- Value Until Time 7
  14,                                     !- Hour 8
  0,                                      !- Minute 8
  0.2,                                    !- Value Until Time 8
  15,                                     !- Hour 9
  0,                                      !- Minute 9
  0.15,                                   !- Value Until Time 9
  16,                                     !- Hour 10
  0,                                      !- Minute 10
  0.2,                                    !- Value Until Time 10
  19,                                     !- Hour 11
  0,                                      !- Minute 11
  0.3,                                    !- Value Until Time 11
  21,                                     !- Hour 12
  0,                                      !- Minute 12
  0.2,                                    !- Value Until Time 12
  22,                                     !- Hour 13
  0,                                      !- Minute 13
  0.15,                                   !- Value Until Time 13
  23,                                     !- Hour 14
  0,                                      !- Minute 14
  0.1,                                    !- Value Until Time 14
  24,                                     !- Hour 15
  0,                                      !- Minute 15
  0.05;                                   !- Value Until Time 15

OS:Schedule:Day,
  {200aa7ae-2d38-4734-b137-d9c912e4e0ce}, !- Handle
  0600|2200|AssistedLiving|Kitchen|gas_equip Summer Design Day, !- Name
  {349aff77-b446-455b-8ee4-b682de03145e}, !- Schedule Type Limits Name
  ,                                       !- Interpolate to Timestep
  7,                                      !- Hour 1
  0,                                      !- Minute 1
  0.02,                                   !- Value Until Time 1
  8,                                      !- Hour 2
  0,                                      !- Minute 2
  0.05,                                   !- Value Until Time 2
  9,                                      !- Hour 3
  0,                                      !- Minute 3
  0.1,                                    !- Value Until Time 3
  10,                                     !- Hour 4
  0,                                      !- Minute 4