
OS:Version,
  {66297e6a-8730-43a4-b46d-1a6421895070}, !- Handle
  1.5.5;                                  !- Version Identifier

OS:ClimateZones,
  {135edfab-17e7-40db-a436-27d385a8cd6d}, !- Handle
  ,                                       !- Active Institution
  ,                                       !- Active Year
  ASHRAE,                                 !- Climate Zone Institution Name 1
  ANSI/ASHRAE Standard 169,               !- Climate Zone Document Name 1
  2006,                                   !- Climate Zone Document Year 1
  ,                                       !- Climate Zone Value 1
  CEC,                                    !- Climate Zone Institution Name 2
  California Climate Zone Descriptions,   !- Climate Zone Document Name 2
  1995,                                   !- Climate Zone Document Year 2
  ;                                       !- Climate Zone Value 2

OS:YearDescription,
  {513d8dda-86cb-442a-b01c-1f7f0e0ac70e}; !- Handle

OS:RadianceParameters,
  {270a96f1-3c86-4b75-a667-cdf22790e2c8}, !- Handle
  1,                                      !- Accumulated Rays per Record
  0,                                      !- Direct Threshold
  1,                                      !- Direct Certainty
  1,                                      !- Direct Jitter
  1,                                      !- Direct Pretest
  6,                                      !- Ambient Bounces VMX
  2,                                      !- Ambient Bounces DMX
  4050,                                   !- Ambient Divisions VMX
  512,                                    !- Ambient Divisions DMX
  256,                                    !- Ambient Supersamples
  0.001,                                  !- Limit Weight VMX
  0.001,                                  !- Limit Weight DMX
  500,                                    !- Klems Sampling Density
  146;                                    !- Sky Discretization Resolution

OS:SimulationControl,
  {2c487a4c-bac9-4ac5-b669-1e49d9da7c2b}, !- Handle
  ,                                       !- Do Zone Sizing Calculation
  ,                                       !- Do System Sizing Calculation
  ,                                       !- Do Plant Sizing Calculation
  No,                                     !- Run Simulation for Sizing Periods
  ,                                       !- Run Simulation for Weather File Run Periods
  0.04,                                   !- Loads Convergence Tolerance Value
  ,                                       !- Temperature Convergence Tolerance Value {deltaC}
  ,                                       !- Solar Distribution
  ,                                       !- Maximum Number of Warmup Days
  2;                                      !- Minimum Number of Warmup Days

OS:Sizing:Parameters,
  {dde5af6f-7923-4600-a28a-7556673a0266}, !- Handle
  1.25,                                   !- Heating Sizing Factor
  1.15;                                   !- Cooling Sizing Factor

OS:ProgramControl,
  {05027a99-f2b3-4aeb-afc6-1425fbb4371d}; !- Handle

OS:Timestep,
  {4ebc9f1e-4707-402e-9844-67eb1ffbd522}, !- Handle
  2;                                      !- Number of Timesteps per Hour

OS:OutputControl:ReportingTolerances,
  {65797aa2-06a9-45fe-b69d-bc6e060399d3}; !- Handle

OS:ConvergenceLimits,
  {9fc11aba-8822-4f3d-970c-46391ba4040d}; !- Handle

OS:ShadowCalculation,
  {ca758bea-4416-4626-9bba-3d8795c79bd6}, !- Handle
  7,                                      !- Calculation Frequency
  15000;                                  !- Maximum Figures in Shadow Overlap Calculations

OS:SurfaceConvectionAlgorithm:Inside,
  {aaabfc36-718a-4ab0-b622-f186ebb45230}, !- Handle
  TARP;                                   !- Algorithm

OS:SurfaceConvectionAlgorithm:Outside,
  {9a0a9f6f-4bbd-4b12-a121-9492a1fcd7d6}, !- Handle
  DOE-2;                                  !- Algorithm

OS:HeatBalanceAlgorithm,
  {9d93e563-e1e0-46d7-9e39-d1c8aceb7212}, !- Handle
  ConductionTransferFunction,             !- Algorithm
  200;                                    !- Surface Temperature Upper Limit {F}

OS:ZoneAirHeatBalanceAlgorithm,
  {8520d93e-310f-4696-9bcd-36228bfdd743}, !- Handle
  AnalyticalSolution;                     !- Algorithm

OS:ZoneAirContaminantBalance,
  {eb5fc3ae-fb22-4160-8fcb-3e3b22b000d3}; !- Handle

OS:ZoneCapacitanceMultiplier:ResearchSpecial,
  {4020ce4f-5a7a-4849-8028-8305d7b751b1}, !- Handle
  ,                                       !- Temperature Capacity Multiplier
  ,                                       !- Humidity Capacity Multiplier
  ;                                       !- Carbon Dioxide Capacity Multiplier

OS:RunPeriod,
  {28df894d-6af9-4fb8-8f56-df1753344aa3}, !- Handle
  Run Period 1,                           !- Name
  1,                                      !- Begin Month
  1,                                      !- Begin Day of Month
  12,                                     !- End Month
  31,                                     !- End Day of Month
  ,                                       !- Use Weather File Holidays and Special Days
  ,                                       !- Use Weather File Daylight Saving Period
  ,                                       !- Apply Weekend Holiday Rule
  ,                                       !- Use Weather File Rain Indicators
  ,                                       !- Use Weather File Snow Indicators
  ;                                       !- Number of Times Runperiod to be Repeated

OS:Building,
  {bf305633-c5a1-4881-9edf-ca5e1a8e1274}, !- Handle
  Building 1,                             !- Name
  ,                                       !- Building Sector Type
  ,                                       !- North Axis {deg}
  ,                                       !- Nominal Floor to Floor Height {m}
  ,                                       !- Space Type Name
  ,                                       !- Default Construction Set Name
  {40df412f-968e-4fbe-a48c-51df3db6fc0c}, !- Default Schedule Set Name
  ,                                       !- Standards Number of Stories
  ,                                       !- Standards Number of Above Ground Stories
  AssistedLiving;                         !- Standards Building Type

OS:LifeCycleCost:Parameters,
  {231cf8a0-f0e7-4251-a99f-11f0d464e661}, !- Handle
  FEMP,                                   !- Analysis Type
  ,                                       !- Discounting Convention
  ,                                       !- Inflation Approach
  ,                                       !- Real Discount Rate
  ,                                       !- Nominal Discount Rate
  ,                                       !- Inflation
  ,                                       !- Base Date Month
  ,                                       !- Base Date Year
  ,                                       !- Service Date Month
  ,                                       !- Service Date Year
  ,                                       !- Length of Study Period in Years
  ,                                       !- Tax Rate
  ,                                       !- Depreciation Method
  Yes;                                    !- Use NIST Fuel Escalation Rates

OS:Facility,
  {3ba8e45b-b833-44eb-a723-ea6c3946dc96}; !- Handle

OS:SpaceType,
  {510e8113-eeb8-491b-a872-e8a070f14c86}, !- Handle
  AssistedLiving|BlendPat|DOE Ref 2004|ASHRAE 169-2006-5A, !- Name
  {32775371-6219-49a7-9930-f6c156e50e4b}, !- Default Construction Set Name
  ,                                       !- Default Schedule Set Name
  {6ca3f108-bf1f-41ea-b34c-f9fd429ea3b0}, !- Group Rendering Name
  {10603a74-20f1-4999-a3f9-8f238ad26ca8}, !- Design Specification Outdoor Air Object Name
  AssistedLiving,                         !- Standards Building Type
  BlendPat;                               !- Standards Space Type

OS:Rendering:Color,
  {6ca3f108-bf1f-41ea-b34c-f9fd429ea3b0}, !- Handle
  Rendering Color 1,                      !- Name
  78,                                     !- Rendering Red Value
  167,                                    !- Rendering Green Value
  222;                                    !- Rendering Blue Value

OS:SpaceType,
  {6bda65f9-eddf-4458-924c-57fc9bc04d76}, !- Handle
  AssistedLiving|BlendCom|DOE Ref 2004|ASHRAE 169-2006-5A, !- Name
  {32775371-6219-49a7-9930-f6c156e50e4b}, !- Default Construction Set Name
  ,                                       !- Default Schedule Set Name
  {78f6493e-e23e-4e48-9a81-374a1430e7ed}, !- Group Rendering Name
  {4adfe24a-4985-4b6b-b002-3b6cd09a7d1c}, !- Design Specification Outdoor Air Object Name
  AssistedLiving,                         !- Standards Building Type
  BlendCom;                               !- Standards Space Type

OS:Rendering:Color,
  {78f6493e-e23e-4e48-9a81-374a1430e7ed}, !- Handle
  Rendering Color 2,                      !- Name
  31,                                     !- Rendering Red Value
  169,                                    !- Rendering Green Value
  34;                                     !- Rendering Blue Value

OS:SpaceType,
  {69dec482-ca17-4cbb-b582-0df1c28983b3}, !- Handle
  AssistedLiving|Kitchen|DOE Ref 2004|ASHRAE 169-2006-5A, !- Name
  {32775371-6219-49a7-9930-f6c156e50e4b}, !- Default Construction Set Name
  {f57f67d8-8d7f-4267-8008-17381caab963}, !- Default Schedule Set Name
  {0f928c95-d3d5-40d7-8a50-cf4c4627bed0}, !- Group Rendering Name
  {11fe36ff-0f6e-41af-80de-a4e8fe5634f6}, !- Design Specification Outdoor Air Object Name
  AssistedLiving,                         !- Standards Building Type
  Kitchen;                                !- Standards Space Type

OS:Rendering:Color,
  {0f928c95-d3d5-40d7-8a50-cf4c4627bed0}, !- Handle
  Rendering Color 3,                      !- Name
  78,                                     !- Rendering Red Value
  222,                                    !- Rendering Green Value
  133;                                    !- Rendering Blue Value

OS:Schedule:Ruleset,
  {4c2f1e8b-d3b6-4c06-82a2-23f570561ca0}, !- Handle
  0600|2200|AssistedLiving|default|hoo,   !- Name
  {7d30c8aa-109d-4532-adae-e5feca7c4010}, !- Schedule Type Limits Name
  {552268ff-6d5e-445d-95bc-51faba6e6c33}, !- Default Day Schedule Name
  {c50111f8-9c98-4c32-8684-fe99e25d8f4a}, !- Summer Design Day Schedule Name
  {b7d31528-c672-4b1d-9a8d-a2c2d358abac}; !- Winter Design Day Schedule Name

OS:Schedule:Day,
  {552268ff-6d5e-445d-95bc-51faba6e6c33}, !- Handle
  0600|2200|AssistedLiving|default|hoo Schedule Week Day, !- Name
  {7d30c8aa-109d-4532-adae-e5feca7c4010}, !- Schedule Type Limits Name
  ,                                       !- Interpolate to Timestep
  6,                                      !- Hour 1
  0,                                      !- Minute 1
  0,                                      !- Value Until Time 1
  22,                                     !- Hour 2
  0,                                      !- Minute 2
  1,                                      !- Value Until Time 2
  24,                                     !- Hour 3
  0,                                      !- Minute 3
  0;                                      !- Value Until Time 3

OS:Schedule:Day,
  {b103e1fd-6315-4040-ade6-d0a1575c4461}, !- Handle
  Schedule Day 2,                         !- Name
  ,                                       !- Schedule Type Limits Name
  ,                                       !- Interpolate to Timestep
  24,                                     !- Hour 1
  0,                                      !- Minute 1
  0;                                      !- Value Until Time 1

OS:Schedule:Day,
  {b7d31528-c672-4b1d-9a8d-a2c2d358abac}, !- Handle
  0600|2200|AssistedLiving|default|hoo Winter Design Day, !- Name
  {7d30c8aa-109d-4532-adae-e5feca7c4010}, !- Schedule Type Limits Name
  ,                                       !- Interpolate to Timestep
  24,                                     !- Hour 1
  0,                                      !- Minute 1
  0;                                      !- Value Until Time 1

OS:Schedule:Day,
  {6233fd4e-38a7-4103-b420-abf7a03ccd01}, !- Handle
  Schedule Day 3,                         !- Name
  ,                                       !- Schedule Type Limits Name
  ,                                       !- Interpolate to Timestep
  24,                                     !- Hour 1
  0,                                      !- Minute 1
  0;                                      !- Value Until Time 1

OS:Schedule:Day,
  {c50111f8-9c98-4c32-8684-fe99e25d8f4a}, !- Handle
  0600|2200|AssistedLiving|default|hoo Summer Design Day, !- Name
  {7d30c8aa-109d-4532-adae-e5feca7c4010}, !- Schedule Type Limits Name
  ,                                       !- Interpolate to Timestep
  24,                                     !- Hour 1
  0,                                      !- Minute 1
  1;                                      !- Value Until Time 1

OS:DefaultScheduleSet,
  {40df412f-968e-4fbe-a48c-51df3db6fc0c}, !- Handle
  Building Hours of Operation,            !- Name
  {4c2f1e8b-d3b6-4c06-82a2-23f570561ca0}, !- Hours of Operation Schedule Name
  ,                                       !- Number of People Schedule Name
  ,                                       !- People Activity Level Schedule Name
  ,                                       !- Lighting Schedule Name
  ,                                       !- Electric Equipment Schedule Name
  ,                                       !- Gas Equipment Schedule Name
  ,                                       !- Hot Water Equipment Schedule Name
  ,                                       !- Infiltration Schedule Name
  ,                                       !- Steam Equipment Schedule Name
  ;                                       !- Other Equipment Schedule Name

OS:ScheduleTypeLimits,
  {7d30c8aa-109d-4532-adae-e5feca7c4010}, !- Handle
  OnOff,                                  !- Name
  0,                                      !- Lower Limit Value {BasedOnField A4}
  1,                                      !- Upper Limit Value {BasedOnField A4}
  Discrete,                               !- Numeric Type
  Availability;                           !- Unit Type

OS:Schedule:Ruleset,
  {5f1af532-685d-450e-ae2c-de0b90246400}, !- Handle
  0600|2200|AssistedLiving|PatRoom|elec_equip, !- Name
  {1b85c69c-ebf5-49c1-83b9-d51398eedf45}, !- Schedule Type Limits Name
  {2468fe44-315c-48e6-bec3-0a877c272b11}, !- Default Day Schedule Name
  {80e5710d-512a-4d2e-9e1a-4a35819f27bc}, !- Summer Design Day Schedule Name
  {39d57f7f-cc50-459a-98b7-7dc47dc11877}; !- Winter Design Day Schedule Name

OS:ScheduleTypeLimits,
  {1b85c69c-ebf5-49c1-83b9-d51398eedf45}, !- Handle
  Equipment Schedule Type Limits,         !- Name
  0,                                      !- Lower Limit Value {BasedOnField A4}
  1,                                      !- Upper Limit Value {BasedOnField A4}
  Continuous,                             !- Numeric Type
  Dimensionless;                          !- Unit Type

OS:Schedule:Day,
  {2468fe44-315c-48e6-bec3-0a877c272b11}, !- Handle
  0600|2200|AssistedLiving|PatRoom|elec_equip |default, !- Name
  {1b85c69c-ebf5-49c1-83b9-d51398eedf45}, !- Schedule Type Limits Name
  ,                                       !- Interpolate to Timestep
  8,                                      !- Hour 1
  0,                                      !- Minute 1
  0.5,                                    !- Value Until Time 1
  18,                                     !- Hour 2
  0,                                      !- Minute 2
  1,                                      !- Value Until Time 2
  20,                                     !- Hour 3
  0,                                      !- Minute 3
  0.8,                                    !- Value Until Time 3
  24,                                     !- Hour 4
  0,                                      !- Minute 4
  0.5;                                    !- Value Until Time 4

OS:Schedule:Day,
  {80e5710d-512a-4d2e-9e1a-4a35819f27bc}, !- Handle
  0600|2200|AssistedLiving|PatRoom|elec_equip Summer Design Day, !- Name
  {1b85c69c-ebf5-49c1-83b9-d51398eedf45}, !- Schedule Type Limits Name
  ,                                       !- Interpolate to Timestep
  24,                                     !- Hour 1
  0,                                      !- Minute 1
  1;                                      !- Value Until Time 1

OS:Schedule:Day,
  {39d57f7f-cc50-459a-98b7-7dc47dc11877}, !- Handle
  0600|2200|AssistedLiving|PatRoom|elec_equip Winter Design Day, !- Name
  {1b85c69c-ebf5-49c1-83b9-d51398eedf45}, !- Schedule Type Limits Name
  ,                                       !- Interpolate to Timestep
  24,                                     !- Hour 1
  0,                                      !- Minute 1
  0.5;                                    !- Value Until Time 1

OS:Schedule:Ruleset,
  {aaa82a3d-a1c1-4b96-b152-5924135d1319}, !- Handle
  0600|2200|AssistedLiving|Kitchen|elec_equip, !- Name
  {1b85c69c-ebf5-49c1-83b9-d51398eedf45}, !- Schedule Type Limits Name
  {50a02e7f-a295-4943-9773-c5b0fb6976de}, !- Default Day Schedule Name
  {2ff95bc2-b2ab-4a14-8004-f3504ed5a616}, !- Summer Design Day Schedule Name
  {82d74fe1-d6a6-4146-b3fc-01970749c140}; !- Winter Design Day Schedule Name

OS:Schedule:Day,
  {50a02e7f-a295-4943-9773-c5b0fb6976de}, !- Handle
  0600|2200|AssistedLiving|Kitchen|elec_equip |default, !- Name
  {1b85c69c-ebf5-49c1-83b9-d51398eedf45}, !- Schedule Type Limits Name
  ,                                       !- Interpolate to Timestep
  7,                                      !- Hour 1
  0,                                      !- Minute 1
  0.02,                                   !- Value Until Time 1
  8,                                      !- Hour 2
  0,                                      !- Minute 2
  0.05,                                   !- Value Until Time 2
  9,                                      !- Hour 3
  0,                                      !- Minute 3
  0.1,                                    !- Value Until Time 3
  10,                                     !- Hour 4
  0,                                      !- Minute 4
  0.15,                                   !- Value Until Time 4
  11,                                     !- Hour 5
  0,                                      !- Minute 5
  0.2,                                    !- Value Until Time 5
  12,                                     !- Hour 6
  0,                                      !- Minute 6
  0.15,                                   !- Value Until Time 6
  13,                                     !- Hour 7
  0,                                      !- Minute 7
  0.25,                                   !- Value Until Time 7
  14,                                     !- Hour 8
  0,                                      !- Minute 8
  0.2,                                    !- Value Until Time 8
  15,                                     !- Hour 9
  0,                                      !- Minute 9
  0.15,                                   !- Value Until Time 9
  16,                                     !- Hour 10
  0,                                      !- Minute 10
  0.2,                                    !- Value Until Time 10
  19,                                     !- Hour 11
  0,                                      !- Minute 11
  0.3,                                    !- Value Until Time 11
  21,                                     !- Hour 12
  0,                                      !- Minute 12
  0.2,                                    !- Value Until Time 12
  22,                                     !- Hour 13
  0,                                      !- Minute 13
  0.15,                                   !- Value Until Time 13
  23,                                     !- Hour 14
  0,                                      !- Minute 14
  0.1,                                    !- Value Until Time 14
  24,                                     !- Hour 15
  0,                                      !- Minute 15
  0.05;                                   !- Value Until Time 15

OS:Schedule:Day,
  {2ff95bc2-b2ab-4a14-8004-f3504ed5a616}, !- Handle
  0600|2200|AssistedLiving|Kitchen|elec_equip Summer Design Day, !- Name
  {1b85c69c-ebf5-49c1-83b9-d51398eedf45}, !- Schedule Type Limits Name
  ,                                       !- Interpolate to Timestep
  7,                                      !- Hour 1
  0,                                      !- Minute 1
  0.02,                                   !- Value Until Time 1
  8,                                      !- Hour 2
  0,                                      !- Minute 2
  0.05,                                   !- Value Until Time 2
  9,                                      !- Hour 3
  0,                                      !- Minute 3
  0.1,                                    !- Value Until Time 3
  10,                                     !- Hour 4
  0,                                      !- Minute 4
  0.15,                                   !- Value Until Time 4
  11,                                     !- Hour 5
  0,                                      !- Minute 5
  0.2,                                    !- Value Until Time 5
  12,                                     !- Hour 6
  0,                                      !- Minute 6
  0.15,                                   !- Value Until Time 6
  13,                                     !- Hour 7
  0,                                      !- Minute 7
  0.25,                                   !- Value Until Time 7
  14,                                     !- Hour 8
  0,                                      !- Minute 8
  0.2,                                    !- Value Until Time 8
  15,                                     !- Hour 9
  0,                                      !- Minute 9
  0.15,                                   !- Value Until Time 9
  16,                                     !- Hour 10
  0,                                      !- Minute 10
  0.2,                                    !- Value Until Time 10
  19,                                     !- Hour 11
  0,                                      !- Minute 11
  1,                                      !- Value Until Time 11
  21,                                     !- Hour 12
  0,                                      !- Minute 12
  0.2,                                    !- Value Until Time 12
  22,                                     !- Hour 13
  0,                                      !- Minute 13
  0.15,                                   !- Value Until Time 13
  23,                                     !- Hour 14
  0,                                      !- Minute 14
  0.1,                                    !- Value Until Time 14
  24,                                     !- Hour 15
  0,                                      !- Minute 15
  0.05;                                   !- Value Until Time 15

OS:Schedule:Day,
  {82d74fe1-d6a6-4146-b3fc-01970749c140}, !- Handle
  0600|2200|AssistedLiving|Kitchen|elec_equip Winter Design Day, !- Name
  {1b85c69c-ebf5-49c1-83b9-d51398eedf45}, !- Schedule Type Limits Name
  ,                                       !- Interpolate to Timestep
  24,                                     !- Hour 1
  0,                                      !- Minute 1
  0.02;                                   !- Value Until Time 1

OS:Schedule:Ruleset,
  {25dcfb67-a426-435a-91d0-f4aec2962284}, !- Handle
  0600|2200|AssistedLiving|PatCorridor|elec_equip, !- Name
  {1b85c69c-ebf5-49c1-83b9-d51398eedf45}, !- Schedule Type Limits Name
  {99d950de-7d0f-421e-9c02-c5c88c9044be}, !- Default Day Schedule Name
  {c61d04bc-54f6-4343-8247-58c504330469}, !- Summer Design Day Schedule Name
  {c154297a-3118-4b79-94cc-3305137cc8ae}; !- Winter Design Day Schedule Name

OS:Schedule:Day,
  {99d950de-7d0f-421e-9c02-c5c88c9044be}, !- Handle
  0600|2200|AssistedLiving|PatCorridor|elec_equip |default, !- Name
  {1b85c69c-ebf5-49c1-83b9-d51398eedf45}, !- Schedule Type Limits Name
  ,                                       !- Interpolate to Timestep
  8,                                      !- Hour 1
  0,                                      !- Minute 1
  0.5,                                    !- Value Until Time 1
  18,                                     !- Hour 2
  0,                                      !- Minute 2
  1,                                      !- Value Until Time 2
  20,                                     !- Hour 3
  0,                                      !- Minute 3
  0.8,                                    !- Value Until Time 3
  24,                                     !- Hour 4
  0,                                      !- Minute 4
  0.5;                                    !- Value Until Time 4

OS:Schedule:Day,
  {c61d04bc-54f6-4343-8247-58c504330469}, !- Handle
  0600|2200|AssistedLiving|PatCorridor|elec_equip Summer Design Day, !- Name
  {1b85c69c-ebf5-49c1-83b9-d51398eedf45}, !- Schedule Type Limits Name
  ,                                       !- Interpolate to Timestep
  24,                                     !- Hour 1
  0,                                      !- Minute 1
  1;                                      !- Value Until Time 1

OS:Schedule:Day,
  {c154297a-3118-4b79-94cc-3305137cc8ae}, !- Handle
  0600|2200|AssistedLiving|PatCorridor|elec_equip Winter Design Day, !- Name
  {1b85c69c-ebf5-49c1-83b9-d51398eedf45}, !- Schedule Type Limits Name
  ,                                       !- Interpolate to Timestep
  24,                                     !- Hour 1
  0,                                      !- Minute 1
  0.5;                                    !- Value Until Time 1

OS:Schedule:Ruleset,
  {70439e73-7e4a-408b-9227-7c45d73abd4f}, !- Handle
  0600|2200|AssistedLiving|Kitchen|gas_equip, !- Name
  {1b85c69c-ebf5-49c1-83b9-d51398eedf45}, !- Schedule Type Limits Name
  {0912bb81-6be0-4683-81a4-59fa2d08786f}, !- Default Day Schedule Name
  {88b5638b-4ad5-44fa-8707-e191b33d17e6}, !- Summer Design Day Schedule Name
  {5e3edc1a-c560-4022-bdb5-cc7ec1274182}; !- Winter Design Day Schedule Name

OS:Schedule:Day,
  {0912bb81-6be0-4683-81a4-59fa2d08786f}, !- Handle
  0600|2200|AssistedLiving|Kitchen|gas_equip |default, !- Name
  {1b85c69c-ebf5-49c1-83b9-d51398eedf45}, !- Schedule Type Limits Name
  ,                                       !- Interpolate to Timestep
  7,                                      !- Hour 1
  0,                                      !- Minute 1
  0.02,                                   !- Value Until Time 1
  8,                                      !- Hour 2
  0,                                      !- Minute 2
  0.05,                                   !- Value Until Time 2
  9,                                      !- Hour 3
  0,                                      !- Minute 3
  0.1,                                    !- Value Until Time 3
  10,                                     !- Hour 4
  0,                                      !- Minute 4
  0.15,                                   !- Value Until Time 4
  11,                                     !- Hour 5
  0,                                      !- Minute 5
  0.2,                                    !- Value Until Time 5
  12,                                     !- Hour 6
  0,                                      !- Minute 6
  0.15,                                   !- Value Until Time 6
  13,                                     !- Hour 7
  0,                                      !- Minute 7
  0.25,                                   !- Value Until Time 7
  14,                                     !- Hour 8
  0,                                      !- Minute 8
  0.2,                                    !- Value Until Time 8
  15,                                     !- Hour 9
  0,                                      !- Minute 9
  0.15,                                   !- Value Until Time 9
  16,                                     !- Hour 10
  0,                                      !- Minute 10
  0.2,                                    !- Value Until Time 10
  19,                                     !- Hour 11
  0,                                      !- Minute 11
  0.3,                                    !- Value Until Time 11
  21,                                     !- Hour 12
  0,                                      !- Minute 12
  0.2,                                    !- Value Until Time 12
  22,                                     !- Hour 13
  0,                                      !- Minute 13
  0.15,                                   !- Value Until Time 13
  23,                                     !- Hour 14
  0,                                      !- Minute 14
  0.1,                                    !- Value Until Time 14
  24,                                     !- Hour 15
  0,                                      !- Minute 15
  0.05;                                   !- Value Until Time 15

OS:Schedule:Day,
  {88b5638b-4ad5-44fa-8707-e191b33d17e6}, !- Handle
  0600|2200|AssistedLiving|Kitchen|gas_equip Summer Design Day, !- Name
  {1b85c69c-ebf5-49c1-83b9-d51398eedf45}, !- Schedule Type Limits Name
  ,                                       !- Interpolate to Timestep
  7,                                      !- Hour 1
  0,                                      !- Minute 1
  0.02,                                   !- Value Until Time 1
  8,                                      !- Hour 2
  0,                                      !- Minute 2
  0.05,                                   !- Value Until Time 2
  9,                                      !- Hour 3
  0,                                      !- Minute 3
  0.1,                                    !- Value Until Time 3
  10,                                     !- Hour 4
  0,                                      !- Minute 4