
OS:Version,
  {bfc57621-a375-4bae-9932-78647339186b}, !- Handle
  1.5.5;                                  !- Version Identifier

OS:ClimateZones,
  {135edfab-17e7-40db-a436-27d385a8cd6d}, !- Handle
  ,                                       !- Active Institution
  ,                                       !- Active Year
  ASHRAE,                                 !- Climate Zone Institution Name 1
  ANSI/ASHRAE Standard 169,               !- Climate Zone Document Name 1
  2006,                                   !- Climate Zone Document Year 1
  ,                                       !- Climate Zone Value 1
  CEC,                                    !- Climate Zone Institution Name 2
  California Climate Zone Descriptions,   !- Climate Zone Document Name 2
  1995,                                   !- Climate Zone Document Year 2
  ;                                       !- Climate Zone Value 2

OS:YearDescription,
  {513d8dda-86cb-442a-b01c-1f7f0e0ac70e}; !- Handle

OS:RadianceParameters,
  {270a96f1-3c86-4b75-a667-cdf22790e2c8}, !- Handle
  1,                                      !- Accumulated Rays per Record
  0,                                      !- Direct Threshold
  1,                                      !- Direct Certainty
  1,                                      !- Direct Jitter
  1,                                      !- Direct Pretest
  6,                                      !- Ambient Bounces VMX
  2,                                      !- Ambient Bounces DMX
  4050,                                   !- Ambient Divisions VMX
  512,                                    !- Ambient Divisions DMX
  256,                                    !- Ambient Supersamples
  0.001,                                  !- Limit Weight VMX
  0.001,                                  !- Limit Weight DMX
  500,                                    !- Klems Sampling Density
  146;                                    !- Sky Discretization Resolution

OS:SimulationControl,
  {2c487a4c-bac9-4ac5-b669-1e49d9da7c2b}, !- Handle
  ,                                       !- Do Zone Sizing Calculation
  ,                                       !- Do System Sizing Calculation
  ,                                       !- Do Plant Sizing Calculation
  No,                                     !- Run Simulation for Sizing Periods
  ,                                       !- Run Simulation for Weather File Run Periods
  0.04,                                   !- Loads Convergence Tolerance Value
  ,                                       !- Temperature Convergence Tolerance Value {deltaC}
  ,                                       !- Solar Distribution
  ,                                       !- Maximum Number of Warmup Days
  2;                                      !- Minimum Number of Warmup Days

OS:Sizing:Parameters,
  {dde5af6f-7923-4600-a28a-7556673a0266}, !- Handle
  1.25,                                   !- Heating Sizing Factor
  1.15;                                   !- Cooling Sizing Factor

OS:ProgramControl,
  {05027a99-f2b3-4aeb-afc6-1425fbb4371d}; !- Handle

OS:Timestep,
  {4ebc9f1e-4707-402e-9844-67eb1ffbd522}, !- Handle
  2;                                      !- Number of Timesteps per Hour

OS:OutputControl:ReportingTolerances,
  {65797aa2-06a9-45fe-b69d-bc6e060399d3}; !- Handle

OS:ConvergenceLimits,
  {9fc11aba-8822-4f3d-970c-46391ba4040d}; !- Handle

OS:ShadowCalculation,
  {ca758bea-4416-4626-9bba-3d8795c79bd6}, !- Handle
  7,                                      !- Calculation Frequency
  15000;                                  !- Maximum Figures in Shadow Overlap Calculations

OS:SurfaceConvectionAlgorithm:Inside,
  {aaabfc36-718a-4ab0-b622-f186ebb45230}, !- Handle
  TARP;                                   !- Algorithm

OS:SurfaceConvectionAlgorithm:Outside,
  {9a0a9f6f-4bbd-4b12-a121-9492a1fcd7d6}, !- Handle
  DOE-2;                                  !- Algorithm

OS:HeatBalanceAlgorithm,
  {9d93e563-e1e0-46d7-9e39-d1c8aceb7212}, !- Handle
  ConductionTransferFunction,             !- Algorithm
  200;                                    !- Surface Temperature Upper Limit {F}

OS:ZoneAirHeatBalanceAlgorithm,
  {8520d93e-310f-4696-9bcd-36228bfdd743}, !- Handle
  AnalyticalSolution;                     !- Algorithm

OS:ZoneAirContaminantBalance,
  {eb5fc3ae-fb22-4160-8fcb-3e3b22b000d3}; !- Handle

OS:ZoneCapacitanceMultiplier:ResearchSpecial,
  {4020ce4f-5a7a-4849-8028-8305d7b751b1}, !- Handle
  ,                                       !- Temperature Capacity Multiplier
  ,                                       !- Humidity Capacity Multiplier
  ;                                       !- Carbon Dioxide Capacity Multiplier

OS:RunPeriod,
  {28df894d-6af9-4fb8-8f56-df1753344aa3}, !- Handle
  Run Period 1,                           !- Name
  1,                                      !- Begin Month
  1,                                      !- Begin Day of Month
  12,                                     !- End Month
  31,                                     !- End Day of Month
  ,                                       !- Use Weather File Holidays and Special Days
  ,                                       !- Use Weather File Daylight Saving Period
  ,                                       !- Apply Weekend Holiday Rule
  ,                                       !- Use Weather File Rain Indicators
  ,                                       !- Use Weather File Snow Indicators
  ;                                       !- Number of Times Runperiod to be Repeated

OS:Building,
  {bf305633-c5a1-4881-9edf-ca5e1a8e1274}, !- Handle
  Building 1,                             !- Name
  ,                                       !- Building Sector Type
  ,                                       !- North Axis {deg}
  ,                                       !- Nominal Floor to Floor Height {m}
  ,                                       !- Space Type Name
  ,                                       !- Default Construction Set Name
  {b14ec615-c58f-49c3-a463-f126bf15385d}, !- Default Schedule Set Name
  ,                                       !- Standards Number of Stories
  ,                                       !- Standards Number of Above Ground Stories
  AutoRepair;                             !- Standards Building Type

OS:LifeCycleCost:Parameters,
  {231cf8a0-f0e7-4251-a99f-11f0d464e661}, !- Handle
  FEMP,                                   !- Analysis Type
  ,                                       !- Discounting Convention
  ,                                       !- Inflation Approach
  ,                                       !- Real Discount Rate
  ,                                       !- Nominal Discount Rate
  ,                                       !- Inflation
  ,                                       !- Base Date Month
  ,                                       !- Base Date Year
  ,                                       !- Service Date Month
  ,                                       !- Service Date Year
  ,                                       !- Length of Study Period in Years
  ,                                       !- Tax Rate
  ,                                       !- Depreciation Method
  Yes;                                    !- Use NIST Fuel Escalation Rates

OS:Facility,
  {3ba8e45b-b833-44eb-a723-ea6c3946dc96}; !- Handle

OS:SpaceType,
  {52749819-77df-4619-ac5b-49ea755194be}, !- Handle
  AutoRepair|Garage|DOE Ref Pre-1980|ASHRAE 169-2006-5A, !- Name
  {9f61f929-f80d-47f4-9e82-40058e83e5c8}, !- Default Construction Set Name
  {43d64563-b0c7-4954-a80b-43107ee6c832}, !- Default Schedule Set Name
  {b231558f-0b1a-483a-9fe9-785aa7d6a05f}, !- Group Rendering Name
  {3adeee29-cf13-47e8-9019-50b5feffd9f0}, !- Design Specification Outdoor Air Object Name
  AutoRepair,                             !- Standards Building Type
  Garage;                                 !- Standards Space Type

OS:Rendering:Color,
  {b231558f-0b1a-483a-9fe9-785aa7d6a05f}, !- Handle
  Rendering Color 1,                      !- Name
  120,                                    !- Rendering Red Value
  120,                                    !- Rendering Green Value
  120;                                    !- Rendering Blue Value

OS:SpaceType,
  {ab9c64f8-a78c-4390-ad24-caa4f9e5a3db}, !- Handle
  AutoRepair|BlendFront|DOE Ref Pre-1980|ASHRAE 169-2006-5A, !- Name
  {9f61f929-f80d-47f4-9e82-40058e83e5c8}, !- Default Construction Set Name
  ,                                       !- Default Schedule Set Name
  {746f3520-b06f-4703-b753-298432cc5a05}, !- Group Rendering Name
  {b82869f5-9385-46ae-ad35-16663fe24eca}, !- Design Specification Outdoor Air Object Name
  AutoRepair,                             !- Standards Building Type
  BlendFront;                             !- Standards Space Type

OS:Rendering:Color,
  {746f3520-b06f-4703-b753-298432cc5a05}, !- Handle
  Rendering Color 2,                      !- Name
  230,                                    !- Rendering Red Value
  157,                                    !- Rendering Green Value
  120;                                    !- Rendering Blue Value

OS:SpaceType,
  {e23f3dc1-0a78-42a6-a469-c3b67ef75928}, !- Handle
  AutoRepair|Restroom|DOE Ref Pre-1980|ASHRAE 169-2006-5A, !- Name
  {9f61f929-f80d-47f4-9e82-40058e83e5c8}, !- Default Construction Set Name
  {ca64e208-86f7-4e75-8108-c5841854d5f1}, !- Default Schedule Set Name
  {912a36ae-7351-4cff-a139-e372a94fde59}, !- Group Rendering Name
  {57df79d3-1926-4b5b-9564-ccbde0d7eca8}, !- Design Specification Outdoor Air Object Name
  AutoRepair,                             !- Standards Building Type
  Restroom;                               !- Standards Space Type

OS:Rendering:Color,
  {912a36ae-7351-4cff-a139-e372a94fde59}, !- Handle
  Rendering Color 3,                      !- Name
  169,                                    !- Rendering Red Value
  169,                                    !- Rendering Green Value
  31;                                     !- Rendering Blue Value

OS:Schedule:Ruleset,
  {12f81c80-a5e1-487d-bbb2-3fe34dd5a246}, !- Handle
  0800|1900|AutoRepair|default|hoo,       !- Name
  {cbe2f3fd-cb17-46cf-a9f7-10ff12965a7e}, !- Schedule Type Limits Name
  {263d1f81-daf3-4fee-a8a2-138706f3b5a1}, !- Default Day Schedule Name
  {9c9f3f8f-b400-4668-b2ba-63947589cc2c}, !- Summer Design Day Schedule Name
  {4c1390ec-f692-427c-9dfb-56a5dbeaeb0c}; !- Winter Design Day Schedule Name

OS:Schedule:Day,
  {263d1f81-daf3-4fee-a8a2-138706f3b5a1}, !- Handle
  0800|1900|AutoRepair|default|hoo Schedule Week Day, !- Name
  {cbe2f3fd-cb17-46cf-a9f7-10ff12965a7e}, !- Schedule Type Limits Name
  ,                                       !- Interpolate to Timestep
  8,                                      !- Hour 1
  0,                                      !- Minute 1
  0,                                      !- Value Until Time 1
  19,                                     !- Hour 2
  0,                                      !- Minute 2
  1,                                      !- Value Until Time 2
  24,                                     !- Hour 3
  0,                                      !- Minute 3
  0;                                      !- Value Until Time 3

OS:Schedule:Day,
  {68348832-6e8e-4138-b094-e0bdf825f5ab}, !- Handle
  Schedule Day 2,                         !- Name
  ,                                       !- Schedule Type Limits Name
  ,                                       !- Interpolate to Timestep
  24,                                     !- Hour 1
  0,                                      !- Minute 1
  0;                                      !- Value Until Time 1

OS:Schedule:Day,
  {4c1390ec-f692-427c-9dfb-56a5dbeaeb0c}, !- Handle
  0800|1900|AutoRepair|default|hoo Winter Design Day, !- Name
  {cbe2f3fd-cb17-46cf-a9f7-10ff12965a7e}, !- Schedule Type Limits Name
  ,                                       !- Interpolate to Timestep
  24,                                     !- Hour 1
  0,                                      !- Minute 1
  0;                                      !- Value Until Time 1

OS:Schedule:Day,
  {411ab5e8-a9c9-4fe3-b668-4d4bf707b24b}, !- Handle
  Schedule Day 3,                         !- Name
  ,                                       !- Schedule Type Limits Name
  ,                                       !- Interpolate to Timestep
  24,                                     !- Hour 1
  0,                                      !- Minute 1
  0;                                      !- Value Until Time 1

OS:Schedule:Day,
  {9c9f3f8f-b400-4668-b2ba-63947589cc2c}, !- Handle
  0800|1900|AutoRepair|default|hoo Summer Design Day, !- Name
  {cbe2f3fd-cb17-46cf-a9f7-10ff12965a7e}, !- Schedule Type Limits Name
  ,                                       !- Interpolate to Timestep
  24,                                     !- Hour 1
  0,                                      !- Minute 1
  1;                                      !- Value Until Time 1

OS:DefaultScheduleSet,
  {b14ec615-c58f-49c3-a463-f126bf15385d}, !- Handle
  Building Hours of Operation,            !- Name
  {12f81c80-a5e1-487d-bbb2-3fe34dd5a246}, !- Hours of Operation Schedule Name
  ,                                       !- Number of People Schedule Name
  ,                                       !- People Activity Level Schedule Name
  ,                                       !- Lighting Schedule Name
  ,                                       !- Electric Equipment Schedule Name
  ,                                       !- Gas Equipment Schedule Name
  ,                                       !- Hot Water Equipment Schedule Name
  ,                                       !- Infiltration Schedule Name
  ,                                       !- Steam Equipment Schedule Name
  ;                                       !- Other Equipment Schedule Name

OS:ScheduleTypeLimits,
  {cbe2f3fd-cb17-46cf-a9f7-10ff12965a7e}, !- Handle
  OnOff,                                  !- Name
  0,                                      !- Lower Limit Value {BasedOnField A4}
  1,                                      !- Upper Limit Value {BasedOnField A4}
  Discrete,                               !- Numeric Type
  Availability;                           !- Unit Type

OS:Schedule:Ruleset,
  {deba140b-4071-4dc7-b0c8-b39df1c2eae3}, !- Handle
  0800|1900|AutoRepair|default|activity,  !- Name
  {fc14a6a4-21d1-4af4-b8c4-6b5736c5e547}, !- Schedule Type Limits Name
  {bc0e7c3b-b07d-4e59-91ab-6b0f713e1a7b}, !- Default Day Schedule Name
  {cab62d5a-4eca-423f-8d75-d70ea4eefdfe}, !- Summer Design Day Schedule Name
  {1429d405-5d13-4f43-b5d5-b049d053a404}; !- Winter Design Day Schedule Name

OS:ScheduleTypeLimits,
  {fc14a6a4-21d1-4af4-b8c4-6b5736c5e547}, !- Handle
  People Activity Type Limits,            !- Name
  0,                                      !- Lower Limit Value {BasedOnField A4}
  ,                                       !- Upper Limit Value {BasedOnField A4}
  Continuous,                             !- Numeric Type
  ActivityLevel;                          !- Unit Type

OS:Schedule:Day,
  {bc0e7c3b-b07d-4e59-91ab-6b0f713e1a7b}, !- Handle
  0800|1900|AutoRepair|default|activity |default, !- Name
  {fc14a6a4-21d1-4af4-b8c4-6b5736c5e547}, !- Schedule Type Limits Name
  ,                                       !- Interpolate to Timestep
  24,                                     !- Hour 1
  0,                                      !- Minute 1
  120;                                    !- Value Until Time 1

OS:Schedule:Day,
  {cab62d5a-4eca-423f-8d75-d70ea4eefdfe}, !- Handle
  0800|1900|AutoRepair|default|activity Summer Design Day, !- Name
  {fc14a6a4-21d1-4af4-b8c4-6b5736c5e547}, !- Schedule Type Limits Name
  ,                                       !- Interpolate to Timestep
  24,                                     !- Hour 1
  0,                                      !- Minute 1
  120;                                    !- Value Until Time 1

OS:Schedule:Day,
  {1429d405-5d13-4f43-b5d5-b049d053a404}, !- Handle
  0800|1900|AutoRepair|default|activity Winter Design Day, !- Name
  {fc14a6a4-21d1-4af4-b8c4-6b5736c5e547}, !- Schedule Type Limits Name
  ,                                       !- Interpolate to Timestep
  24,                                     !- Hour 1
  0,                                      !- Minute 1
  120;                                    !- Value Until Time 1

OS:Schedule:Ruleset,
  {b903d60a-6b00-42a1-b0ea-6a11a883b642}, !- Handle
  0800|1900|AutoRepair|default|work_eff,  !- Name
  {a70badb0-997a-4f2c-a700-9481a080d825}, !- Schedule Type Limits Name
  {c0e8ad3b-0353-4db1-a5d3-218cbeee72f3}, !- Default Day Schedule Name
  {45f33380-44a6-4b62-a0c2-2dcafe2eb551}, !- Summer Design Day Schedule Name
  {c6125d8a-8f63-4708-bd0a-30b2a33ed15a}; !- Winter Design Day Schedule Name

OS:ScheduleTypeLimits,
  {a70badb0-997a-4f2c-a700-9481a080d825}, !- Handle
  Fraction Schedule Type Limits,          !- Name
  0,                                      !- Lower Limit Value {BasedOnField A4}
  1,                                      !- Upper Limit Value {BasedOnField A4}
  Continuous,                             !- Numeric Type
  Dimensionless;                          !- Unit Type

OS:Schedule:Day,
  {c0e8ad3b-0353-4db1-a5d3-218cbeee72f3}, !- Handle
  0800|1900|AutoRepair|default|work_eff |default, !- Name
  {a70badb0-997a-4f2c-a700-9481a080d825}, !- Schedule Type Limits Name
  ,                                       !- Interpolate to Timestep
  24,                                     !- Hour 1
  0,                                      !- Minute 1
  0;                                      !- Value Until Time 1

OS:Schedule:Day,
  {45f33380-44a6-4b62-a0c2-2dcafe2eb551}, !- Handle
  0800|1900|AutoRepair|default|work_eff Summer Design Day, !- Name
  {a70badb0-997a-4f2c-a700-9481a080d825}, !- Schedule Type Limits Name
  ,                                       !- Interpolate to Timestep
  24,                                     !- Hour 1
  0,                                      !- Minute 1
  0;                                      !- Value Until Time 1

OS:Schedule:Day,
  {c6125d8a-8f63-4708-bd0a-30b2a33ed15a}, !- Handle
  0800|1900|AutoRepair|default|work_eff Winter Design Day, !- Name
  {a70badb0-997a-4f2c-a700-9481a080d825}, !- Schedule Type Limits Name
  ,                                       !- Interpolate to Timestep
  24,                                     !- Hour 1
  0,                                      !- Minute 1
  0;                                      !- Value Until Time 1

OS:Schedule:Ruleset,
  {5fdc2c6c-a83e-4433-b363-91f765f5a7a9}, !- Handle
  0800|1900|AutoRepair|default|air_velocity, !- Name
  {4335a612-dc2e-4444-8c83-0522c2f50736}, !- Schedule Type Limits Name
  {3d81b654-b0ee-40b8-b035-a6e42ee8356a}, !- Default Day Schedule Name
  {f7f67d00-1310-4b41-9037-1078c077fb26}, !- Summer Design Day Schedule Name
  {db5a185c-ac83-4740-a9fb-8253af72f341}; !- Winter Design Day Schedule Name

OS:ScheduleTypeLimits,
  {4335a612-dc2e-4444-8c83-0522c2f50736}, !- Handle
  Dimensionless Schedule Type Limits,     !- Name
  ,                                       !- Lower Limit Value {BasedOnField A4}
  ,                                       !- Upper Limit Value {BasedOnField A4}
  Continuous,                             !- Numeric Type
  Dimensionless;                          !- Unit Type

OS:Schedule:Day,
  {3d81b654-b0ee-40b8-b035-a6e42ee8356a}, !- Handle
  0800|1900|AutoRepair|default|air_velocity |default, !- Name
  {4335a612-dc2e-4444-8c83-0522c2f50736}, !- Schedule Type Limits Name
  ,                                       !- Interpolate to Timestep
  24,                                     !- Hour 1
  0,                                      !- Minute 1
  0.200152;                               !- Value Until Time 1

OS:Schedule:Day,
  {f7f67d00-1310-4b41-9037-1078c077fb26}, !- Handle
  0800|1900|AutoRepair|default|air_velocity Summer Design Day, !- Name
  {4335a612-dc2e-4444-8c83-0522c2f50736}, !- Schedule Type Limits Name
  ,                                       !- Interpolate to Timestep
  24,                                     !- Hour 1
  0,                                      !- Minute 1
  0.200152;                               !- Value Until Time 1

OS:Schedule:Day,
  {db5a185c-ac83-4740-a9fb-8253af72f341}, !- Handle
  0800|1900|AutoRepair|default|air_velocity Winter Design Day, !- Name
  {4335a612-dc2e-4444-8c83-0522c2f50736}, !- Schedule Type Limits Name
  ,                                       !- Interpolate to Timestep
  24,                                     !- Hour 1
  0,                                      !- Minute 1
  0.200152;                               !- Value Until Time 1

OS:Schedule:Ruleset,
  {c37de031-91a0-481b-8fbd-8def24b06803}, !- Handle
  0800|1900|AutoRepair|default|htg_setpoint, !- Name
  {b5d19a3f-556f-4eed-b5dd-ff4fcce5a94c}, !- Schedule Type Limits Name
  {1ea11209-3932-4622-b077-bef265a087d3}, !- Default Day Schedule Name
  {205ad762-9ea5-44d8-873a-0d3566f24bd8}, !- Summer Design Day Schedule Name
  {80a4a10a-559f-4fdb-ac65-4d892d4a405a}; !- Winter Design Day Schedule Name

OS:ScheduleTypeLimits,
  {b5d19a3f-556f-4eed-b5dd-ff4fcce5a94c}, !- Handle
  Thermostat Heating Setpoint Schedule Type Limits, !- Name
  0,                                      !- Lower Limit Value {BasedOnField A4}
  100,                                    !- Upper Limit Value {BasedOnField A4}
  Continuous,                             !- Numeric Type
  Temperature;                            !- Unit Type

OS:Schedule:Day,
  {1ea11209-3932-4622-b077-bef265a087d3}, !- Handle
  0800|1900|AutoRepair|default|htg_setpoint |default, !- Name
  {b5d19a3f-556f-4eed-b5dd-ff4fcce5a94c}, !- Schedule Type Limits Name
  ,                                       !- Interpolate to Timestep
  6,                                      !- Hour 1
  0,                                      !- Minute 1
  15.6111111111111,                       !- Value Until Time 1
  24,                                     !- Hour 2
  0,                                      !- Minute 2
  21.0000000000001;                       !- Value Until Time 2

OS:Schedule:Day,
  {205ad762-9ea5-44d8-873a-0d3566f24bd8}, !- Handle
  0800|1900|AutoRepair|default|htg_setpoint Summer Design Day, !- Name
  {b5d19a3f-556f-4eed-b5dd-ff4fcce5a94c}, !- Schedule Type Limits Name
  ,                                       !- Interpolate to Timestep
  6,                                      !- Hour 1
  0,                                      !- Minute 1
  15.6111111111111,                       !- Value Until Time 1
  24,                                     !- Hour 2
  0,                                      !- Minute 2
  21.0000000000001;                       !- Value Until Time 2

OS:Schedule:Day,
  {80a4a10a-559f-4fdb-ac65-4d892d4a405a}, !- Handle
  0800|1900|AutoRepair|default|htg_setpoint Winter Design Day, !- Name
  {b5d19a3f-556f-4eed-b5dd-ff4fcce5a94c}, !- Schedule Type Limits Name
  ,                                       !- Interpolate to Timestep
  24,                                     !- Hour 1
  0,                                      !- Minute 1
  15.6111111111111;                       !- Value Until Time 1

OS:Schedule:Rule,
  {27604170-0e7f-4ff5-8468-03d60aa5d8eb}, !- Handle
  0800|1900|AutoRepair|default|htg_setpoint |1/1-12/31|Sun Rule, !- Name
  {c37de031-91a0-481b-8fbd-8def24b06803}, !- Schedule Ruleset Name
  0,                                      !- Rule Order
  {b2889ba9-9c25-48c7-8496-f13403a29091}, !- Day Schedule Name
  Yes,                                    !- Apply Sunday
  ,                                       !- Apply Monday
  ,                                       !- Apply Tuesday
  ,                                       !- Apply Wednesday
  ,                                       !- Apply Thursday
  ,                                       !- Apply Friday
  ,                                       !- Apply Saturday
  ,                                       !- Apply Holiday
  DateRange,                              !- Date Specification Type
  1,                                      !- Start Month
  1,                                      !- Start Day
  12,                                     !- End Month
  31;                                     !- End Day

OS:Schedule:Day,
  {b2889ba9-9c25-48c7-8496-f13403a29091}, !- Handle
  0800|1900|AutoRepair|default|htg_setpoint |1/1-12/31|Sun, !- Name
  {b5d19a3f-556f-4eed-b5dd-ff4fcce5a94c}, !- Schedule Type Limits Name
  ,                                       !- Interpolate to Timestep
  8,                                      !- Hour 1
  0,                                      !- Minute 1
  15.6111111111111,                       !- Value Until Time 1
  8,                                      !- Hour 2
  30,                                     !- Minute 2
  15.8555555555556,                       !- Value Until Time 2
  9,                                      !- Hour 3
  0,                                      !- Minute 3
  16.1,                                   !- Value Until Time 3
  9,                                      !- Hour 4
  30,                                     !- Minute 4
  16.3444444444445,                       !- Value Until Time 4
  10,                                     !- Hour 5
  0,                                      !- Minute 5
  16.5888888888889,                       !- Value Until Time 5
  10,                                     !- Hour 6
  30,                                     !- Minute 6
  16.8333333333334,                       !- Value Until Time 6
  11,                                     !- Hour 7
  0,                                      !- Minute 7
  17.0833333333334,                       !- Value Until Time 7
  11,                                     !- Hour 8
  30,                                     !- Minute 8
  17.3277777777778,                       !- Value Until Time 8
  12,                                     !- Hour 9
  0,                                      !- Minute 9
  17.5722222222223,                       !- Value Until Time 9
  12,                                     !- Hour 10
  30,                                     !- Minute 10
  17.8166666666667,                       !- Value Until Time 10
  13,                                     !- Hour 11
  0,                                      !- Minute 11
  18.0611111111111,                       !- Value Until Time 11
  13,                                     !- Hour 12
  30,                                     !- Minute 12
  18.3055555555556,                       !- Value Until Time 12
  14,                                     !- Hour 13
  0,                                      !- Minute 13
  18.5500000000001,                       !- Value Until Time 13
  14,                                     !- Hour 14
  30,                                     !- Minute 14
  18.7944444444445,                       !- Value Until Time 14
  15,                                     !- Hour 15
  0,                                      !- Minute 15
  19.0388888888889,                       !- Value Until Time 15
  15,                                     !- Hour 16
  30,                                     !- Minute 16
  19.2833333333334,                       !- Value Until Time 16
  16,                                     !- Hour 17
  0,                                      !- Minute 17
  19.5277777777778,                       !- Value Until Time 17
  16,                                     !- Hour 18
  30,                                     !- Minute 18
  19.7777777777778,                       !- Value Until Time 18
  17,                                     !- Hour 19
  0,                                      !- Minute 19
  20.0222222222222,                       !- Value Until Time 19
  17,                                     !- Hour 20
  30,                                     !- Minute 20
  20.2666666666667,                       !- Value Until Time 20
  18,                                     !- Hour 21
  0,                                      !- Minute 21
  20.5111111111112,                       !- Value Until Time 21
  18,                                     !- Hour 22
  30,                                     !- Minute 22
  20.7555555555556,                       !- Value Until Time 22
  19,                                     !- Hour 23
  0,                                      !- Minute 23
  21.0000000000001,                       !- Value Until Time 23
  24,                                     !- Hour 24
  0,                                      !- Minute 24
  15.6111111111111;                       !- Value Until Time 24

OS:Schedule:Rule,
  {d23e9209-07bd-428f-846c-f9b601fe3946}, !- Handle
  0800|1900|AutoRepair|default|htg_setpoint |1/1-12/31|Sat Rule, !- Name
  {c37de031-91a0-481b-8fbd-8def24b06803}, !- Schedule Ruleset Name
  1,                                      !- Rule Order
  {330c0efc-19a7-4df6-a93d-baf2169a7b5a}, !- Day Schedule Name
  ,                                       !- Apply Sunday
  ,                                       !- Apply Monday
  ,                                       !- Apply Tuesday
  ,                                       !- Apply Wednesday
  ,                                       !- Apply Thursday
  ,                                       !- Apply Friday
  Yes,                                    !- Apply Saturday
  ,                                       !- Apply Holiday
  DateRange,                              !- Date Specification Type
  1,                                      !- Start Month
  1,                                      !- Start Day
  12,                                     !- End Month
  31;                                     !- End Day

OS:Schedule:Day,
  {330c0efc-19a7-4df6-a93d-baf2169a7b5a}, !- Handle
  0800|1900|AutoRepair|default|htg_setpoint |1/1-12/31|Sat, !- Name