
OS:Version,
  {b48e5912-d8f3-4de2-bb92-8ef9cad6d20e}, !- Handle
  1.5.5;                                  !- Version Identifier

OS:ClimateZones,
  {135edfab-17e7-40db-a436-27d385a8cd6d}, !- Handle
  ,                                       !- Active Institution
  ,                                       !- Active Year
  ASHRAE,                                 !- Climate Zone Institution Name 1
  ANSI/ASHRAE Standard 169,               !- Climate Zone Document Name 1
  2006,                                   !- Climate Zone Document Year 1
  ,                                       !- Climate Zone Value 1
  CEC,                                    !- Climate Zone Institution Name 2
  California Climate Zone Descriptions,   !- Climate Zone Document Name 2
  1995,                                   !- Climate Zone Document Year 2
  ;                                       !- Climate Zone Value 2

OS:YearDescription,
  {513d8dda-86cb-442a-b01c-1f7f0e0ac70e}; !- Handle

OS:RadianceParameters,
  {270a96f1-3c86-4b75-a667-cdf22790e2c8}, !- Handle
  1,                                      !- Accumulated Rays per Record
  0,                                      !- Direct Threshold
  1,                                      !- Direct Certainty
  1,                                      !- Direct Jitter
  1,                                      !- Direct Pretest
  6,                                      !- Ambient Bounces VMX
  2,                                      !- Ambient Bounces DMX
  4050,                                   !- Ambient Divisions VMX
  512,                                    !- Ambient Divisions DMX
  256,                                    !- Ambient Supersamples
  0.001,                                  !- Limit Weight VMX
  0.001,                                  !- Limit Weight DMX
  500,                                    !- Klems Sampling Density
  146;                                    !- Sky Discretization Resolution

OS:SimulationControl,
  {2c487a4c-bac9-4ac5-b669-1e49d9da7c2b}, !- Handle
  ,                                       !- Do Zone Sizing Calculation
  ,                                       !- Do System Sizing Calculation
  ,                                       !- Do Plant Sizing Calculation
  No,                                     !- Run Simulation for Sizing Periods
  ,                                       !- Run Simulation for Weather File Run Periods
  0.04,                                   !- Loads Convergence Tolerance Value
  ,                                       !- Temperature Convergence Tolerance Value {deltaC}
  ,                                       !- Solar Distribution
  ,                                       !- Maximum Number of Warmup Days
  2;                                      !- Minimum Number of Warmup Days

OS:Sizing:Parameters,
  {dde5af6f-7923-4600-a28a-7556673a0266}, !- Handle
  1.25,                                   !- Heating Sizing Factor
  1.15;                                   !- Cooling Sizing Factor

OS:ProgramControl,
  {05027a99-f2b3-4aeb-afc6-1425fbb4371d}; !- Handle

OS:Timestep,
  {4ebc9f1e-4707-402e-9844-67eb1ffbd522}, !- Handle
  2;                                      !- Number of Timesteps per Hour

OS:OutputControl:ReportingTolerances,
  {65797aa2-06a9-45fe-b69d-bc6e060399d3}; !- Handle

OS:ConvergenceLimits,
  {9fc11aba-8822-4f3d-970c-46391ba4040d}; !- Handle

OS:ShadowCalculation,
  {ca758bea-4416-4626-9bba-3d8795c79bd6}, !- Handle
  7,                                      !- Calculation Frequency
  15000;                                  !- Maximum Figures in Shadow Overlap Calculations

OS:SurfaceConvectionAlgorithm:Inside,
  {aaabfc36-718a-4ab0-b622-f186ebb45230}, !- Handle
  TARP;                                   !- Algorithm

OS:SurfaceConvectionAlgorithm:Outside,
  {9a0a9f6f-4bbd-4b12-a121-9492a1fcd7d6}, !- Handle
  DOE-2;                                  !- Algorithm

OS:HeatBalanceAlgorithm,
  {9d93e563-e1e0-46d7-9e39-d1c8aceb7212}, !- Handle
  ConductionTransferFunction,             !- Algorithm
  200;                                    !- Surface Temperature Upper Limit {F}

OS:ZoneAirHeatBalanceAlgorithm,
  {8520d93e-310f-4696-9bcd-36228bfdd743}, !- Handle
  AnalyticalSolution;                     !- Algorithm

OS:ZoneAirContaminantBalance,
  {eb5fc3ae-fb22-4160-8fcb-3e3b22b000d3}; !- Handle

OS:ZoneCapacitanceMultiplier:ResearchSpecial,
  {4020ce4f-5a7a-4849-8028-8305d7b751b1}, !- Handle
  ,                                       !- Temperature Capacity Multiplier
  ,                                       !- Humidity Capacity Multiplier
  ;                                       !- Carbon Dioxide Capacity Multiplier

OS:RunPeriod,
  {28df894d-6af9-4fb8-8f56-df1753344aa3}, !- Handle
  Run Period 1,                           !- Name
  1,                                      !- Begin Month
  1,                                      !- Begin Day of Month
  12,                                     !- End Month
  31,                                     !- End Day of Month
  ,                                       !- Use Weather File Holidays and Special Days
  ,                                       !- Use Weather File Daylight Saving Period
  ,                                       !- Apply Weekend Holiday Rule
  ,                                       !- Use Weather File Rain Indicators
  ,                                       !- Use Weather File Snow Indicators
  ;                                       !- Number of Times Runperiod to be Repeated

OS:Building,
  {bf305633-c5a1-4881-9edf-ca5e1a8e1274}, !- Handle
  Building 1,                             !- Name
  ,                                       !- Building Sector Type
  ,                                       !- North Axis {deg}
  ,                                       !- Nominal Floor to Floor Height {m}
  ,                                       !- Space Type Name
  ,                                       !- Default Construction Set Name
  {5f0fa087-1775-4d19-8619-f10170dd4dab}, !- Default Schedule Set Name
  ,                                       !- Standards Number of Stories
  ,                                       !- Standards Number of Above Ground Stories
  AutoSales;                              !- Standards Building Type

OS:LifeCycleCost:Parameters,
  {231cf8a0-f0e7-4251-a99f-11f0d464e661}, !- Handle
  FEMP,                                   !- Analysis Type
  ,                                       !- Discounting Convention
  ,                                       !- Inflation Approach
  ,                                       !- Real Discount Rate
  ,                                       !- Nominal Discount Rate
  ,                                       !- Inflation
  ,                                       !- Base Date Month
  ,                                       !- Base Date Year
  ,                                       !- Service Date Month
  ,                                       !- Service Date Year
  ,                                       !- Length of Study Period in Years
  ,                                       !- Tax Rate
  ,                                       !- Depreciation Method
  Yes;                                    !- Use NIST Fuel Escalation Rates

OS:Facility,
  {3ba8e45b-b833-44eb-a723-ea6c3946dc96}; !- Handle

OS:SpaceType,
  {a2e445de-c262-45ba-9fba-44a67a389834}, !- Handle
  AutoSales|BlendFront|DOE Ref 1980-2004|ASHRAE 169-2006-5A, !- Name
  {d500ab2a-27f7-4cfe-ad98-d24df977f490}, !- Default Construction Set Name
  ,                                       !- Default Schedule Set Name
  {de848ab7-5e4e-420c-ab71-3e2d54e8ac30}, !- Group Rendering Name
  {f7568054-5010-4f0c-b374-165585f2ee51}, !- Design Specification Outdoor Air Object Name
  AutoSales,                              !- Standards Building Type
  BlendFront;                             !- Standards Space Type

OS:Rendering:Color,
  {de848ab7-5e4e-420c-ab71-3e2d54e8ac30}, !- Handle
  Rendering Color 1,                      !- Name
  120,                                    !- Rendering Red Value
  120,                                    !- Rendering Green Value
  120;                                    !- Rendering Blue Value

OS:SpaceType,
  {c21bece9-4dee-464a-aa93-3bd274e9dd20}, !- Handle
  AutoSales|Garage|DOE Ref 1980-2004|ASHRAE 169-2006-5A, !- Name
  {d500ab2a-27f7-4cfe-ad98-d24df977f490}, !- Default Construction Set Name
  {d49e7dfd-e5b8-41c7-bdaa-7bb8fa022c2a}, !- Default Schedule Set Name
  {cb2e4d91-3e41-414a-9959-17079c2568b3}, !- Group Rendering Name
  {cfdd6d7e-5688-47b3-9c2e-78b86fa68d05}, !- Design Specification Outdoor Air Object Name
  AutoSales,                              !- Standards Building Type
  Garage;                                 !- Standards Space Type

OS:Rendering:Color,
  {cb2e4d91-3e41-414a-9959-17079c2568b3}, !- Handle
  Rendering Color 2,                      !- Name
  120,                                    !- Rendering Red Value
  120,                                    !- Rendering Green Value
  120;                                    !- Rendering Blue Value

OS:SpaceType,
  {e79675fa-ebd0-4727-be92-b13339ac1033}, !- Handle
  AutoSales|Restroom|DOE Ref 1980-2004|ASHRAE 169-2006-5A, !- Name
  {d500ab2a-27f7-4cfe-ad98-d24df977f490}, !- Default Construction Set Name
  {96c239e6-b26b-443d-ab24-9be8d545a682}, !- Default Schedule Set Name
  {100d5d13-708f-4b4b-b610-36195837bcd6}, !- Group Rendering Name
  {5a9daa63-f50e-44e2-9612-d743aa73930e}, !- Design Specification Outdoor Air Object Name
  AutoSales,                              !- Standards Building Type
  Restroom;                               !- Standards Space Type

OS:Rendering:Color,
  {100d5d13-708f-4b4b-b610-36195837bcd6}, !- Handle
  Rendering Color 3,                      !- Name
  169,                                    !- Rendering Red Value
  169,                                    !- Rendering Green Value
  31;                                     !- Rendering Blue Value

OS:Schedule:Ruleset,
  {a12ac2ca-657b-499f-9d28-4c703b15755b}, !- Handle
  0900|2000|AutoSales|default|hoo,        !- Name
  {120e3efe-1c11-4845-a6f4-b918aeb34714}, !- Schedule Type Limits Name
  {2e0f16fa-50f3-4ab5-bf79-7c8bccef2a03}, !- Default Day Schedule Name
  {4777c46b-99eb-439b-840e-ac2686a10214}, !- Summer Design Day Schedule Name
  {6a145709-8628-4369-8eee-9e43374c8ae5}; !- Winter Design Day Schedule Name

OS:Schedule:Day,
  {2e0f16fa-50f3-4ab5-bf79-7c8bccef2a03}, !- Handle
  0900|2000|AutoSales|default|hoo Schedule Week Day, !- Name
  {120e3efe-1c11-4845-a6f4-b918aeb34714}, !- Schedule Type Limits Name
  ,                                       !- Interpolate to Timestep
  9,                                      !- Hour 1
  0,                                      !- Minute 1
  0,                                      !- Value Until Time 1
  20,                                     !- Hour 2
  0,                                      !- Minute 2
  1,                                      !- Value Until Time 2
  24,                                     !- Hour 3
  0,                                      !- Minute 3
  0;                                      !- Value Until Time 3

OS:Schedule:Day,
  {de2c5333-ce55-4f10-8fa8-c41f8907b2d8}, !- Handle
  Schedule Day 2,                         !- Name
  ,                                       !- Schedule Type Limits Name
  ,                                       !- Interpolate to Timestep
  24,                                     !- Hour 1
  0,                                      !- Minute 1
  0;                                      !- Value Until Time 1

OS:Schedule:Day,
  {6a145709-8628-4369-8eee-9e43374c8ae5}, !- Handle
  0900|2000|AutoSales|default|hoo Winter Design Day, !- Name
  {120e3efe-1c11-4845-a6f4-b918aeb34714}, !- Schedule Type Limits Name
  ,                                       !- Interpolate to Timestep
  24,                                     !- Hour 1
  0,                                      !- Minute 1
  0;                                      !- Value Until Time 1

OS:Schedule:Day,
  {1f1c4046-0cae-4605-b47b-dfb8ed2196c4}, !- Handle
  Schedule Day 3,                         !- Name
  ,                                       !- Schedule Type Limits Name
  ,                                       !- Interpolate to Timestep
  24,                                     !- Hour 1
  0,                                      !- Minute 1
  0;                                      !- Value Until Time 1

OS:Schedule:Day,
  {4777c46b-99eb-439b-840e-ac2686a10214}, !- Handle
  0900|2000|AutoSales|default|hoo Summer Design Day, !- Name
  {120e3efe-1c11-4845-a6f4-b918aeb34714}, !- Schedule Type Limits Name
  ,                                       !- Interpolate to Timestep
  24,                                     !- Hour 1
  0,                                      !- Minute 1
  1;                                      !- Value Until Time 1

OS:DefaultScheduleSet,
  {5f0fa087-1775-4d19-8619-f10170dd4dab}, !- Handle
  Building Hours of Operation,            !- Name
  {a12ac2ca-657b-499f-9d28-4c703b15755b}, !- Hours of Operation Schedule Name
  ,                                       !- Number of People Schedule Name
  ,                                       !- People Activity Level Schedule Name
  ,                                       !- Lighting Schedule Name
  ,                                       !- Electric Equipment Schedule Name
  ,                                       !- Gas Equipment Schedule Name
  ,                                       !- Hot Water Equipment Schedule Name
  ,                                       !- Infiltration Schedule Name
  ,                                       !- Steam Equipment Schedule Name
  ;                                       !- Other Equipment Schedule Name

OS:ScheduleTypeLimits,
  {120e3efe-1c11-4845-a6f4-b918aeb34714}, !- Handle
  OnOff,                                  !- Name
  0,                                      !- Lower Limit Value {BasedOnField A4}
  1,                                      !- Upper Limit Value {BasedOnField A4}
  Discrete,                               !- Numeric Type
  Availability;                           !- Unit Type

OS:Schedule:Ruleset,
  {30755bbe-f884-4ff3-bfad-74f7bdb4c58f}, !- Handle
  0900|2000|AutoSales|default|lighting,   !- Name
  {28464ee7-c3f7-40b3-a0a5-12f759490644}, !- Schedule Type Limits Name
  {4d799cac-5539-48f3-ba20-3b67d004cd0a}, !- Default Day Schedule Name
  {684eec93-b2a6-4fe2-9fe8-e353d1bb5ec3}, !- Summer Design Day Schedule Name
  {5d872634-3bd6-4d8f-aee7-4683dfe1dbbc}; !- Winter Design Day Schedule Name

OS:ScheduleTypeLimits,
  {28464ee7-c3f7-40b3-a0a5-12f759490644}, !- Handle
  Lights Schedule Type Limits,            !- Name
  0,                                      !- Lower Limit Value {BasedOnField A4}
  1,                                      !- Upper Limit Value {BasedOnField A4}
  Continuous,                             !- Numeric Type
  Dimensionless;                          !- Unit Type

OS:Schedule:Day,
  {4d799cac-5539-48f3-ba20-3b67d004cd0a}, !- Handle
  0900|2000|AutoSales|default|lighting |default, !- Name
  {28464ee7-c3f7-40b3-a0a5-12f759490644}, !- Schedule Type Limits Name
  ,                                       !- Interpolate to Timestep
  6,                                      !- Hour 1
  0,                                      !- Minute 1
  0.05,                                   !- Value Until Time 1
  6,                                      !- Hour 2
  30,                                     !- Minute 2
  0.1,                                    !- Value Until Time 2
  7,                                      !- Hour 3
  0,                                      !- Minute 3
  0.15,                                   !- Value Until Time 3
  7,                                      !- Hour 4
  30,                                     !- Minute 4
  0.21,                                   !- Value Until Time 4
  8,                                      !- Hour 5
  0,                                      !- Minute 5
  0.26,                                   !- Value Until Time 5
  8,                                      !- Hour 6
  30,                                     !- Minute 6
  0.31,                                   !- Value Until Time 6
  9,                                      !- Hour 7
  0,                                      !- Minute 7
  0.36,                                   !- Value Until Time 7
  20,                                     !- Hour 8
  0,                                      !- Minute 8
  0.9,                                    !- Value Until Time 8
  20,                                     !- Hour 9
  30,                                     !- Minute 9
  0.79,                                   !- Value Until Time 9
  21,                                     !- Hour 10
  0,                                      !- Minute 10
  0.69,                                   !- Value Until Time 10
  21,                                     !- Hour 11
  30,                                     !- Minute 11
  0.58,                                   !- Value Until Time 11
  22,                                     !- Hour 12
  0,                                      !- Minute 12
  0.48,                                   !- Value Until Time 12
  22,                                     !- Hour 13
  30,                                     !- Minute 13
  0.37,                                   !- Value Until Time 13
  23,                                     !- Hour 14
  0,                                      !- Minute 14
  0.26,                                   !- Value Until Time 14
  23,                                     !- Hour 15
  30,                                     !- Minute 15
  0.16,                                   !- Value Until Time 15
  24,                                     !- Hour 16
  0,                                      !- Minute 16
  0.05;                                   !- Value Until Time 16

OS:Schedule:Day,
  {684eec93-b2a6-4fe2-9fe8-e353d1bb5ec3}, !- Handle
  0900|2000|AutoSales|default|lighting Summer Design Day, !- Name
  {28464ee7-c3f7-40b3-a0a5-12f759490644}, !- Schedule Type Limits Name
  ,                                       !- Interpolate to Timestep
  6,                                      !- Hour 1
  0,                                      !- Minute 1
  0.05,                                   !- Value Until Time 1
  6,                                      !- Hour 2
  30,                                     !- Minute 2
  0.1,                                    !- Value Until Time 2
  7,                                      !- Hour 3
  0,                                      !- Minute 3
  0.15,                                   !- Value Until Time 3
  7,                                      !- Hour 4
  30,                                     !- Minute 4
  0.21,                                   !- Value Until Time 4
  8,                                      !- Hour 5
  0,                                      !- Minute 5
  0.26,                                   !- Value Until Time 5
  22,                                     !- Hour 6
  30,                                     !- Minute 6
  1,                                      !- Value Until Time 6
  23,                                     !- Hour 7
  0,                                      !- Minute 7
  0.26,                                   !- Value Until Time 7
  23,                                     !- Hour 8
  30,                                     !- Minute 8
  0.16,                                   !- Value Until Time 8
  24,                                     !- Hour 9
  0,                                      !- Minute 9
  0.05;                                   !- Value Until Time 9

OS:Schedule:Day,
  {5d872634-3bd6-4d8f-aee7-4683dfe1dbbc}, !- Handle
  0900|2000|AutoSales|default|lighting Winter Design Day, !- Name
  {28464ee7-c3f7-40b3-a0a5-12f759490644}, !- Schedule Type Limits Name
  ,                                       !- Interpolate to Timestep
  24,                                     !- Hour 1
  0,                                      !- Minute 1
  0.05;                                   !- Value Until Time 1

OS:Schedule:Rule,
  {7a978d58-631a-48e6-9a59-f8d5b0102790}, !- Handle
  0900|2000|AutoSales|default|lighting |1/1-12/31|Sun Rule, !- Name
  {30755bbe-f884-4ff3-bfad-74f7bdb4c58f}, !- Schedule Ruleset Name
  0,                                      !- Rule Order
  {809275d9-a6d2-4aef-a658-51c7d0d67377}, !- Day Schedule Name
  Yes,                                    !- Apply Sunday
  ,                                       !- Apply Monday
  ,                                       !- Apply Tuesday
  ,                                       !- Apply Wednesday
  ,                                       !- Apply Thursday
  ,                                       !- Apply Friday
  ,                                       !- Apply Saturday
  ,                                       !- Apply Holiday
  DateRange,                              !- Date Specification Type
  1,                                      !- Start Month
  1,                                      !- Start Day
  12,                                     !- End Month
  31;                                     !- End Day

OS:Schedule:Day,
  {809275d9-a6d2-4aef-a658-51c7d0d67377}, !- Handle
  0900|2000|AutoSales|default|lighting |1/1-12/31|Sun, !- Name
  {28464ee7-c3f7-40b3-a0a5-12f759490644}, !- Schedule Type Limits Name
  ,                                       !- Interpolate to Timestep
  24,                                     !- Hour 1
  0,                                      !- Minute 1
  0.05;                                   !- Value Until Time 1

OS:Schedule:Rule,
  {3908be1d-ebad-40ab-8120-12b4d6061fe2}, !- Handle
  0900|2000|AutoSales|default|lighting |1/1-12/31|Sat Rule, !- Name
  {30755bbe-f884-4ff3-bfad-74f7bdb4c58f}, !- Schedule Ruleset Name
  1,                                      !- Rule Order
  {d38c6c25-458d-474d-a8ee-51f2b85673d7}, !- Day Schedule Name
  ,                                       !- Apply Sunday
  ,                                       !- Apply Monday
  ,                                       !- Apply Tuesday
  ,                                       !- Apply Wednesday
  ,                                       !- Apply Thursday
  ,                                       !- Apply Friday
  Yes,                                    !- Apply Saturday
  ,                                       !- Apply Holiday
  DateRange,                              !- Date Specification Type
  1,                                      !- Start Month
  1,                                      !- Start Day
  12,                                     !- End Month
  31;                                     !- End Day

OS:Schedule:Day,
  {d38c6c25-458d-474d-a8ee-51f2b85673d7}, !- Handle
  0900|2000|AutoSales|default|lighting |1/1-12/31|Sat, !- Name
  {28464ee7-c3f7-40b3-a0a5-12f759490644}, !- Schedule Type Limits Name
  ,                                       !- Interpolate to Timestep
  6,                                      !- Hour 1
  30,                                     !- Minute 1
  0.05,                                   !- Value Until Time 1
  7,                                      !- Hour 2
  30,                                     !- Minute 2
  0.06,                                   !- Value Until Time 2
  8,                                      !- Hour 3
  30,                                     !- Minute 3
  0.07,                                   !- Value Until Time 3
  9,                                      !- Hour 4
  0,                                      !- Minute 4
  0.08,                                   !- Value Until Time 4
  17,                                     !- Hour 5
  0,                                      !- Minute 5
  0.5,                                    !- Value Until Time 5
  17,                                     !- Hour 6
  30,                                     !- Minute 6
  0.44,                                   !- Value Until Time 6
  18,                                     !- Hour 7
  0,                                      !- Minute 7
  0.39,                                   !- Value Until Time 7
  18,                                     !- Hour 8
  30,                                     !- Minute 8
  0.33,                                   !- Value Until Time 8
  19,                                     !- Hour 9
  0,                                      !- Minute 9
  0.28,                                   !- Value Until Time 9
  19,                                     !- Hour 10
  30,                                     !- Minute 10
  0.22,                                   !- Value Until Time 10
  20,                                     !- Hour 11
  0,                                      !- Minute 11
  0.16,                                   !- Value Until Time 11
  20,                                     !- Hour 12
  30,                                     !- Minute 12
  0.11,                                   !- Value Until Time 12
  24,                                     !- Hour 13
  0,                                      !- Minute 13
  0.05;                                   !- Value Until Time 13

OS:Schedule:Ruleset,
  {13c75b61-0d24-4ae2-8d71-d4de4912cde8}, !- Handle
  0900|2000|AutoSales|Garage|htg_setpoint, !- Name
  {06aafa90-21b3-4ea2-8d89-bb765f8ee4e6}, !- Schedule Type Limits Name
  {ba693fd2-0c0a-439c-bca5-6024ccba7498}, !- Default Day Schedule Name
  {8fdb52cf-7dd4-454f-b5b2-261c860bd68e}, !- Summer Design Day Schedule Name
  {5d2f181e-1a6d-45ec-aff3-5cf6e0574d8d}; !- Winter Design Day Schedule Name

OS:ScheduleTypeLimits,
  {06aafa90-21b3-4ea2-8d89-bb765f8ee4e6}, !- Handle
  Thermostat Heating Setpoint Schedule Type Limits, !- Name
  0,                                      !- Lower Limit Value {BasedOnField A4}
  100,                                    !- Upper Limit Value {BasedOnField A4}
  Continuous,                             !- Numeric Type
  Temperature;                            !- Unit Type

OS:Schedule:Day,
  {ba693fd2-0c0a-439c-bca5-6024ccba7498}, !- Handle
  0900|2000|AutoSales|Garage|htg_setpoint |default, !- Name
  {06aafa90-21b3-4ea2-8d89-bb765f8ee4e6}, !- Schedule Type Limits Name
  ,                                       !- Interpolate to Timestep
  24,                                     !- Hour 1
  0,                                      !- Minute 1
  10.0000000000001;                       !- Value Until Time 1

OS:Schedule:Day,
  {8fdb52cf-7dd4-454f-b5b2-261c860bd68e}, !- Handle
  0900|2000|AutoSales|Garage|htg_setpoint Summer Design Day, !- Name
  {06aafa90-21b3-4ea2-8d89-bb765f8ee4e6}, !- Schedule Type Limits Name
  ,                                       !- Interpolate to Timestep
  24,                                     !- Hour 1
  0,                                      !- Minute 1
  10.0000000000001;                       !- Value Until Time 1

OS:Schedule:Day,
  {5d2f181e-1a6d-45ec-aff3-5cf6e0574d8d}, !- Handle
  0900|2000|AutoSales|Garage|htg_setpoint Winter Design Day, !- Name
  {06aafa90-21b3-4ea2-8d89-bb765f8ee4e6}, !- Schedule Type Limits Name
  ,                                       !- Interpolate to Timestep
  24,                                     !- Hour 1
  0,                                      !- Minute 1
  10.0000000000001;                       !- Value Until Time 1

OS:Schedule:Rule,
  {973a35b6-f1b3-4073-9cd8-dc4da2f1cdec}, !- Handle
  0900|2000|AutoSales|Garage|htg_setpoint |1/1-12/31|Sun Rule, !- Name
  {13c75b61-0d24-4ae2-8d71-d4de4912cde8}, !- Schedule Ruleset Name
  0,                                      !- Rule Order
  {01c38e38-29e5-45c2-a3f2-b727b2a64a42}, !- Day Schedule Name
  Yes,                                    !- Apply Sunday
  ,                                       !- Apply Monday
  ,                                       !- Apply Tuesday
  ,                                       !- Apply Wednesday
  ,                                       !- Apply Thursday
  ,                                       !- Apply Friday
  ,                                       !- Apply Saturday
  ,                                       !- Apply Holiday
  DateRange,                              !- Date Specification Type
  1,                                      !- Start Month
  1,                                      !- Start Day
  12,                                     !- End Month
  31;                                     !- End Day

OS:Schedule:Day,
  {01c38e38-29e5-45c2-a3f2-b727b2a64a42}, !- Handle
  0900|2000|AutoSales|Garage|htg_setpoint |1/1-12/31|Sun, !- Name
  {06aafa90-21b3-4ea2-8d89-bb765f8ee4e6}, !- Schedule Type Limits Name
  ,                                       !- Interpolate to Timestep
  24,                                     !- Hour 1
  0,                                      !- Minute 1
  10.0000000000001;                       !- Value Until Time 1

OS:Schedule:Rule,
  {4ee31e34-064d-4e7c-8b99-3e25b680fc0f}, !- Handle
  0900|2000|AutoSales|Garage|htg_setpoint |1/1-12/31|Sat Rule, !- Name
  {13c75b61-0d24-4ae2-8d71-d4de4912cde8}, !- Schedule Ruleset Name
  1,                                      !- Rule Order
  {e1b526b6-2a85-4403-b248-6d6c81e353ca}, !- Day Schedule Name
  ,                                       !- Apply Sunday
  ,                                       !- Apply Monday
  ,                                       !- Apply Tuesday
  ,                                       !- Apply Wednesday
  ,                                       !- Apply Thursday
  ,                                       !- Apply Friday
  Yes,                                    !- Apply Saturday
  ,                                       !- Apply Holiday