
OS:Version,
  {4a9e3567-e935-4f62-b895-c73ad5ad3189}, !- Handle
  1.5.5;                                  !- Version Identifier

OS:ClimateZones,
  {135edfab-17e7-40db-a436-27d385a8cd6d}, !- Handle
  ,                                       !- Active Institution
  ,                                       !- Active Year
  ASHRAE,                                 !- Climate Zone Institution Name 1
  ANSI/ASHRAE Standard 169,               !- Climate Zone Document Name 1
  2006,                                   !- Climate Zone Document Year 1
  ,                                       !- Climate Zone Value 1
  CEC,                                    !- Climate Zone Institution Name 2
  California Climate Zone Descriptions,   !- Climate Zone Document Name 2
  1995,                                   !- Climate Zone Document Year 2
  ;                                       !- Climate Zone Value 2

OS:YearDescription,
  {513d8dda-86cb-442a-b01c-1f7f0e0ac70e}; !- Handle

OS:RadianceParameters,
  {270a96f1-3c86-4b75-a667-cdf22790e2c8}, !- Handle
  1,                                      !- Accumulated Rays per Record
  0,                                      !- Direct Threshold
  1,                                      !- Direct Certainty
  1,                                      !- Direct Jitter
  1,                                      !- Direct Pretest
  6,                                      !- Ambient Bounces VMX
  2,                                      !- Ambient Bounces DMX
  4050,                                   !- Ambient Divisions VMX
  512,                                    !- Ambient Divisions DMX
  256,                                    !- Ambient Supersamples
  0.001,                                  !- Limit Weight VMX
  0.001,                                  !- Limit Weight DMX
  500,                                    !- Klems Sampling Density
  146;                                    !- Sky Discretization Resolution

OS:SimulationControl,
  {2c487a4c-bac9-4ac5-b669-1e49d9da7c2b}, !- Handle
  ,                                       !- Do Zone Sizing Calculation
  ,                                       !- Do System Sizing Calculation
  ,                                       !- Do Plant Sizing Calculation
  No,                                     !- Run Simulation for Sizing Periods
  ,                                       !- Run Simulation for Weather File Run Periods
  0.04,                                   !- Loads Convergence Tolerance Value
  ,                                       !- Temperature Convergence Tolerance Value {deltaC}
  ,                                       !- Solar Distribution
  ,                                       !- Maximum Number of Warmup Days
  2;                                      !- Minimum Number of Warmup Days

OS:Sizing:Parameters,
  {dde5af6f-7923-4600-a28a-7556673a0266}, !- Handle
  1.25,                                   !- Heating Sizing Factor
  1.15;                                   !- Cooling Sizing Factor

OS:ProgramControl,
  {05027a99-f2b3-4aeb-afc6-1425fbb4371d}; !- Handle

OS:Timestep,
  {4ebc9f1e-4707-402e-9844-67eb1ffbd522}, !- Handle
  2;                                      !- Number of Timesteps per Hour

OS:OutputControl:ReportingTolerances,
  {65797aa2-06a9-45fe-b69d-bc6e060399d3}; !- Handle

OS:ConvergenceLimits,
  {9fc11aba-8822-4f3d-970c-46391ba4040d}; !- Handle

OS:ShadowCalculation,
  {ca758bea-4416-4626-9bba-3d8795c79bd6}, !- Handle
  7,                                      !- Calculation Frequency
  15000;                                  !- Maximum Figures in Shadow Overlap Calculations

OS:SurfaceConvectionAlgorithm:Inside,
  {aaabfc36-718a-4ab0-b622-f186ebb45230}, !- Handle
  TARP;                                   !- Algorithm

OS:SurfaceConvectionAlgorithm:Outside,
  {9a0a9f6f-4bbd-4b12-a121-9492a1fcd7d6}, !- Handle
  DOE-2;                                  !- Algorithm

OS:HeatBalanceAlgorithm,
  {9d93e563-e1e0-46d7-9e39-d1c8aceb7212}, !- Handle
  ConductionTransferFunction,             !- Algorithm
  200;                                    !- Surface Temperature Upper Limit {F}

OS:ZoneAirHeatBalanceAlgorithm,
  {8520d93e-310f-4696-9bcd-36228bfdd743}, !- Handle
  AnalyticalSolution;                     !- Algorithm

OS:ZoneAirContaminantBalance,
  {eb5fc3ae-fb22-4160-8fcb-3e3b22b000d3}; !- Handle

OS:ZoneCapacitanceMultiplier:ResearchSpecial,
  {4020ce4f-5a7a-4849-8028-8305d7b751b1}, !- Handle
  ,                                       !- Temperature Capacity Multiplier
  ,                                       !- Humidity Capacity Multiplier
  ;                                       !- Carbon Dioxide Capacity Multiplier

OS:RunPeriod,
  {28df894d-6af9-4fb8-8f56-df1753344aa3}, !- Handle
  Run Period 1,                           !- Name
  1,                                      !- Begin Month
  1,                                      !- Begin Day of Month
  12,                                     !- End Month
  31,                                     !- End Day of Month
  ,                                       !- Use Weather File Holidays and Special Days
  ,                                       !- Use Weather File Daylight Saving Period
  ,                                       !- Apply Weekend Holiday Rule
  ,                                       !- Use Weather File Rain Indicators
  ,                                       !- Use Weather File Snow Indicators
  ;                                       !- Number of Times Runperiod to be Repeated

OS:Building,
  {bf305633-c5a1-4881-9edf-ca5e1a8e1274}, !- Handle
  Building 1,                             !- Name
  ,                                       !- Building Sector Type
  ,                                       !- North Axis {deg}
  ,                                       !- Nominal Floor to Floor Height {m}
  ,                                       !- Space Type Name
  ,                                       !- Default Construction Set Name
  {92f84d87-73bb-4ee6-b318-36c4fb213370}, !- Default Schedule Set Name
  ,                                       !- Standards Number of Stories
  ,                                       !- Standards Number of Above Ground Stories
  AutoRepair;                             !- Standards Building Type

OS:LifeCycleCost:Parameters,
  {231cf8a0-f0e7-4251-a99f-11f0d464e661}, !- Handle
  FEMP,                                   !- Analysis Type
  ,                                       !- Discounting Convention
  ,                                       !- Inflation Approach
  ,                                       !- Real Discount Rate
  ,                                       !- Nominal Discount Rate
  ,                                       !- Inflation
  ,                                       !- Base Date Month
  ,                                       !- Base Date Year
  ,                                       !- Service Date Month
  ,                                       !- Service Date Year
  ,                                       !- Length of Study Period in Years
  ,                                       !- Tax Rate
  ,                                       !- Depreciation Method
  Yes;                                    !- Use NIST Fuel Escalation Rates

OS:Facility,
  {3ba8e45b-b833-44eb-a723-ea6c3946dc96}; !- Handle

OS:SpaceType,
  {71c374ee-d0d0-4083-90a6-addd1416f399}, !- Handle
  AutoRepair|Garage|DOE Ref 1980-2004|ASHRAE 169-2006-5A, !- Name
  {2160b21b-dc13-4d6d-914a-8183aa2d658b}, !- Default Construction Set Name
  {f5e62cb6-1097-49a0-a66b-9b0585030422}, !- Default Schedule Set Name
  {235e2d22-70f7-47c7-b710-f2121fedd925}, !- Group Rendering Name
  {6d5f7c0e-a390-420e-a449-72c504ec073d}, !- Design Specification Outdoor Air Object Name
  AutoRepair,                             !- Standards Building Type
  Garage;                                 !- Standards Space Type

OS:Rendering:Color,
  {235e2d22-70f7-47c7-b710-f2121fedd925}, !- Handle
  Rendering Color 1,                      !- Name
  120,                                    !- Rendering Red Value
  120,                                    !- Rendering Green Value
  120;                                    !- Rendering Blue Value

OS:SpaceType,
  {168a7b06-9ce5-4d1f-8510-f09785de067e}, !- Handle
  AutoRepair|BlendFront|DOE Ref 1980-2004|ASHRAE 169-2006-5A, !- Name
  {2160b21b-dc13-4d6d-914a-8183aa2d658b}, !- Default Construction Set Name
  ,                                       !- Default Schedule Set Name
  {53ba568e-d32b-4e3e-b4d1-d71fa47ac9b7}, !- Group Rendering Name
  {20209b1e-5f8c-47cd-bebf-f88631f6f578}, !- Design Specification Outdoor Air Object Name
  AutoRepair,                             !- Standards Building Type
  BlendFront;                             !- Standards Space Type

OS:Rendering:Color,
  {53ba568e-d32b-4e3e-b4d1-d71fa47ac9b7}, !- Handle
  Rendering Color 2,                      !- Name
  230,                                    !- Rendering Red Value
  157,                                    !- Rendering Green Value
  120;                                    !- Rendering Blue Value

OS:SpaceType,
  {dea74fb6-9c60-4859-af20-64e9ea79b610}, !- Handle
  AutoRepair|Restroom|DOE Ref 1980-2004|ASHRAE 169-2006-5A, !- Name
  {2160b21b-dc13-4d6d-914a-8183aa2d658b}, !- Default Construction Set Name
  {17dd5293-02b4-43f8-9544-ccc3718699e7}, !- Default Schedule Set Name
  {bbba0239-7048-4756-8dce-f02913d35c88}, !- Group Rendering Name
  {06616886-2fcc-4a9d-b0d5-876d1a781ce1}, !- Design Specification Outdoor Air Object Name
  AutoRepair,                             !- Standards Building Type
  Restroom;                               !- Standards Space Type

OS:Rendering:Color,
  {bbba0239-7048-4756-8dce-f02913d35c88}, !- Handle
  Rendering Color 3,                      !- Name
  169,                                    !- Rendering Red Value
  169,                                    !- Rendering Green Value
  31;                                     !- Rendering Blue Value

OS:Schedule:Ruleset,
  {7a9fadbf-3c3e-4df8-9d9b-d928bc9435bc}, !- Handle
  0800|1900|AutoRepair|default|hoo,       !- Name
  {15fa47de-2f0a-4046-9a15-9c22d0c550ee}, !- Schedule Type Limits Name
  {22ea7ebd-c608-44a5-bd96-187b7ca9557d}, !- Default Day Schedule Name
  {239632f9-6570-45f0-b8d5-aac1daf1c40b}, !- Summer Design Day Schedule Name
  {86523ada-8387-4893-a79a-a8abef3e08f8}; !- Winter Design Day Schedule Name

OS:Schedule:Day,
  {22ea7ebd-c608-44a5-bd96-187b7ca9557d}, !- Handle
  0800|1900|AutoRepair|default|hoo Schedule Week Day, !- Name
  {15fa47de-2f0a-4046-9a15-9c22d0c550ee}, !- Schedule Type Limits Name
  ,                                       !- Interpolate to Timestep
  8,                                      !- Hour 1
  0,                                      !- Minute 1
  0,                                      !- Value Until Time 1
  19,                                     !- Hour 2
  0,                                      !- Minute 2
  1,                                      !- Value Until Time 2
  24,                                     !- Hour 3
  0,                                      !- Minute 3
  0;                                      !- Value Until Time 3

OS:Schedule:Day,
  {bbd969a6-c786-460c-9fe9-bbde5d64f7e1}, !- Handle
  Schedule Day 2,                         !- Name
  ,                                       !- Schedule Type Limits Name
  ,                                       !- Interpolate to Timestep
  24,                                     !- Hour 1
  0,                                      !- Minute 1
  0;                                      !- Value Until Time 1

OS:Schedule:Day,
  {86523ada-8387-4893-a79a-a8abef3e08f8}, !- Handle
  0800|1900|AutoRepair|default|hoo Winter Design Day, !- Name
  {15fa47de-2f0a-4046-9a15-9c22d0c550ee}, !- Schedule Type Limits Name
  ,                                       !- Interpolate to Timestep
  24,                                     !- Hour 1
  0,                                      !- Minute 1
  0;                                      !- Value Until Time 1

OS:Schedule:Day,
  {ee80df18-8f76-4b16-944d-2acdc684e052}, !- Handle
  Schedule Day 3,                         !- Name
  ,                                       !- Schedule Type Limits Name
  ,                                       !- Interpolate to Timestep
  24,                                     !- Hour 1
  0,                                      !- Minute 1
  0;                                      !- Value Until Time 1

OS:Schedule:Day,
  {239632f9-6570-45f0-b8d5-aac1daf1c40b}, !- Handle
  0800|1900|AutoRepair|default|hoo Summer Design Day, !- Name
  {15fa47de-2f0a-4046-9a15-9c22d0c550ee}, !- Schedule Type Limits Name
  ,                                       !- Interpolate to Timestep
  24,                                     !- Hour 1
  0,                                      !- Minute 1
  1;                                      !- Value Until Time 1

OS:DefaultScheduleSet,
  {92f84d87-73bb-4ee6-b318-36c4fb213370}, !- Handle
  Building Hours of Operation,            !- Name
  {7a9fadbf-3c3e-4df8-9d9b-d928bc9435bc}, !- Hours of Operation Schedule Name
  ,                                       !- Number of People Schedule Name
  ,                                       !- People Activity Level Schedule Name
  ,                                       !- Lighting Schedule Name
  ,                                       !- Electric Equipment Schedule Name
  ,                                       !- Gas Equipment Schedule Name
  ,                                       !- Hot Water Equipment Schedule Name
  ,                                       !- Infiltration Schedule Name
  ,                                       !- Steam Equipment Schedule Name
  ;                                       !- Other Equipment Schedule Name

OS:ScheduleTypeLimits,
  {15fa47de-2f0a-4046-9a15-9c22d0c550ee}, !- Handle
  OnOff,                                  !- Name
  0,                                      !- Lower Limit Value {BasedOnField A4}
  1,                                      !- Upper Limit Value {BasedOnField A4}
  Discrete,                               !- Numeric Type
  Availability;                           !- Unit Type

OS:Schedule:Ruleset,
  {7e9f4c05-970d-4bb6-a542-28eab275e3a1}, !- Handle
  0800|1900|AutoRepair|default|activity,  !- Name
  {42bc3d30-6357-4172-b6fd-bdf4ac70fbcf}, !- Schedule Type Limits Name
  {12c5a871-3518-4ef3-87cc-8d4f2f95a856}, !- Default Day Schedule Name
  {9d95786c-673b-4eb6-8c5b-b7946da935d3}, !- Summer Design Day Schedule Name
  {381bc9e4-b36c-4aba-aab6-f671ea8fc360}; !- Winter Design Day Schedule Name

OS:ScheduleTypeLimits,
  {42bc3d30-6357-4172-b6fd-bdf4ac70fbcf}, !- Handle
  People Activity Type Limits,            !- Name
  0,                                      !- Lower Limit Value {BasedOnField A4}
  ,                                       !- Upper Limit Value {BasedOnField A4}
  Continuous,                             !- Numeric Type
  ActivityLevel;                          !- Unit Type

OS:Schedule:Day,
  {12c5a871-3518-4ef3-87cc-8d4f2f95a856}, !- Handle
  0800|1900|AutoRepair|default|activity |default, !- Name
  {42bc3d30-6357-4172-b6fd-bdf4ac70fbcf}, !- Schedule Type Limits Name
  ,                                       !- Interpolate to Timestep
  24,                                     !- Hour 1
  0,                                      !- Minute 1
  120;                                    !- Value Until Time 1

OS:Schedule:Day,
  {9d95786c-673b-4eb6-8c5b-b7946da935d3}, !- Handle
  0800|1900|AutoRepair|default|activity Summer Design Day, !- Name
  {42bc3d30-6357-4172-b6fd-bdf4ac70fbcf}, !- Schedule Type Limits Name
  ,                                       !- Interpolate to Timestep
  24,                                     !- Hour 1
  0,                                      !- Minute 1
  120;                                    !- Value Until Time 1

OS:Schedule:Day,
  {381bc9e4-b36c-4aba-aab6-f671ea8fc360}, !- Handle
  0800|1900|AutoRepair|default|activity Winter Design Day, !- Name
  {42bc3d30-6357-4172-b6fd-bdf4ac70fbcf}, !- Schedule Type Limits Name
  ,                                       !- Interpolate to Timestep
  24,                                     !- Hour 1
  0,                                      !- Minute 1
  120;                                    !- Value Until Time 1

OS:Schedule:Ruleset,
  {f2aa4c3e-4ae4-4fba-920f-c298669f325b}, !- Handle
  0800|1900|AutoRepair|default|work_eff,  !- Name
  {b89bfde6-4fb3-426e-89d5-4eb45feedc0f}, !- Schedule Type Limits Name
  {c130c6db-7a29-42de-b400-735859c4926f}, !- Default Day Schedule Name
  {9e4f89c6-0428-4bb6-ad63-9741cd8c08c9}, !- Summer Design Day Schedule Name
  {5f15decf-68d7-4593-bc10-6001afb1030f}; !- Winter Design Day Schedule Name

OS:ScheduleTypeLimits,
  {b89bfde6-4fb3-426e-89d5-4eb45feedc0f}, !- Handle
  Fraction Schedule Type Limits,          !- Name
  0,                                      !- Lower Limit Value {BasedOnField A4}
  1,                                      !- Upper Limit Value {BasedOnField A4}
  Continuous,                             !- Numeric Type
  Dimensionless;                          !- Unit Type

OS:Schedule:Day,
  {c130c6db-7a29-42de-b400-735859c4926f}, !- Handle
  0800|1900|AutoRepair|default|work_eff |default, !- Name
  {b89bfde6-4fb3-426e-89d5-4eb45feedc0f}, !- Schedule Type Limits Name
  ,                                       !- Interpolate to Timestep
  24,                                     !- Hour 1
  0,                                      !- Minute 1
  0;                                      !- Value Until Time 1

OS:Schedule:Day,
  {9e4f89c6-0428-4bb6-ad63-9741cd8c08c9}, !- Handle
  0800|1900|AutoRepair|default|work_eff Summer Design Day, !- Name
  {b89bfde6-4fb3-426e-89d5-4eb45feedc0f}, !- Schedule Type Limits Name
  ,                                       !- Interpolate to Timestep
  24,                                     !- Hour 1
  0,                                      !- Minute 1
  0;                                      !- Value Until Time 1

OS:Schedule:Day,
  {5f15decf-68d7-4593-bc10-6001afb1030f}, !- Handle
  0800|1900|AutoRepair|default|work_eff Winter Design Day, !- Name
  {b89bfde6-4fb3-426e-89d5-4eb45feedc0f}, !- Schedule Type Limits Name
  ,                                       !- Interpolate to Timestep
  24,                                     !- Hour 1
  0,                                      !- Minute 1
  0;                                      !- Value Until Time 1

OS:Schedule:Ruleset,
  {9dd0d43f-206e-4f30-9406-7035d06aea66}, !- Handle
  0800|1900|AutoRepair|default|air_velocity, !- Name
  {84b7cbf3-3e8e-486d-aa42-2845d16b7e39}, !- Schedule Type Limits Name
  {bbac4611-002d-4712-8ce9-77ca03612bed}, !- Default Day Schedule Name
  {2a159039-6d43-46d3-9951-9418846f617e}, !- Summer Design Day Schedule Name
  {5ad779a6-ca91-4264-a0f8-e4b3e3cd2dbc}; !- Winter Design Day Schedule Name

OS:ScheduleTypeLimits,
  {84b7cbf3-3e8e-486d-aa42-2845d16b7e39}, !- Handle
  Dimensionless Schedule Type Limits,     !- Name
  ,                                       !- Lower Limit Value {BasedOnField A4}
  ,                                       !- Upper Limit Value {BasedOnField A4}
  Continuous,                             !- Numeric Type
  Dimensionless;                          !- Unit Type

OS:Schedule:Day,
  {bbac4611-002d-4712-8ce9-77ca03612bed}, !- Handle
  0800|1900|AutoRepair|default|air_velocity |default, !- Name
  {84b7cbf3-3e8e-486d-aa42-2845d16b7e39}, !- Schedule Type Limits Name
  ,                                       !- Interpolate to Timestep
  24,                                     !- Hour 1
  0,                                      !- Minute 1
  0.200152;                               !- Value Until Time 1

OS:Schedule:Day,
  {2a159039-6d43-46d3-9951-9418846f617e}, !- Handle
  0800|1900|AutoRepair|default|air_velocity Summer Design Day, !- Name
  {84b7cbf3-3e8e-486d-aa42-2845d16b7e39}, !- Schedule Type Limits Name
  ,                                       !- Interpolate to Timestep
  24,                                     !- Hour 1
  0,                                      !- Minute 1
  0.200152;                               !- Value Until Time 1

OS:Schedule:Day,
  {5ad779a6-ca91-4264-a0f8-e4b3e3cd2dbc}, !- Handle
  0800|1900|AutoRepair|default|air_velocity Winter Design Day, !- Name
  {84b7cbf3-3e8e-486d-aa42-2845d16b7e39}, !- Schedule Type Limits Name
  ,                                       !- Interpolate to Timestep
  24,                                     !- Hour 1
  0,                                      !- Minute 1
  0.200152;                               !- Value Until Time 1

OS:Schedule:Ruleset,
  {6d74f8f3-dd88-40ed-8ee3-1228bf0262d3}, !- Handle
  0800|1900|AutoRepair|default|htg_setpoint, !- Name
  {73fb0825-7571-4c51-8cea-811b6014ba6b}, !- Schedule Type Limits Name
  {9475ab6f-78e9-4bbb-b215-7259fa13ab51}, !- Default Day Schedule Name
  {2b249a33-09f5-49cd-9467-548a02806231}, !- Summer Design Day Schedule Name
  {1cd077f8-cdf2-469c-8c89-8809be24de79}; !- Winter Design Day Schedule Name

OS:ScheduleTypeLimits,
  {73fb0825-7571-4c51-8cea-811b6014ba6b}, !- Handle
  Thermostat Heating Setpoint Schedule Type Limits, !- Name
  0,                                      !- Lower Limit Value {BasedOnField A4}
  100,                                    !- Upper Limit Value {BasedOnField A4}
  Continuous,                             !- Numeric Type
  Temperature;                            !- Unit Type

OS:Schedule:Day,
  {9475ab6f-78e9-4bbb-b215-7259fa13ab51}, !- Handle
  0800|1900|AutoRepair|default|htg_setpoint |default, !- Name
  {73fb0825-7571-4c51-8cea-811b6014ba6b}, !- Schedule Type Limits Name
  ,                                       !- Interpolate to Timestep
  6,                                      !- Hour 1
  0,                                      !- Minute 1
  15.6111111111111,                       !- Value Until Time 1
  24,                                     !- Hour 2
  0,                                      !- Minute 2
  21.0000000000001;                       !- Value Until Time 2

OS:Schedule:Day,
  {2b249a33-09f5-49cd-9467-548a02806231}, !- Handle
  0800|1900|AutoRepair|default|htg_setpoint Summer Design Day, !- Name
  {73fb0825-7571-4c51-8cea-811b6014ba6b}, !- Schedule Type Limits Name
  ,                                       !- Interpolate to Timestep
  6,                                      !- Hour 1
  0,                                      !- Minute 1
  15.6111111111111,                       !- Value Until Time 1
  24,                                     !- Hour 2
  0,                                      !- Minute 2
  21.0000000000001;                       !- Value Until Time 2

OS:Schedule:Day,
  {1cd077f8-cdf2-469c-8c89-8809be24de79}, !- Handle
  0800|1900|AutoRepair|default|htg_setpoint Winter Design Day, !- Name
  {73fb0825-7571-4c51-8cea-811b6014ba6b}, !- Schedule Type Limits Name
  ,                                       !- Interpolate to Timestep
  24,                                     !- Hour 1
  0,                                      !- Minute 1
  15.6111111111111;                       !- Value Until Time 1

OS:Schedule:Rule,
  {cf4e4f9b-f6f6-4f74-a078-95692ffde1da}, !- Handle
  0800|1900|AutoRepair|default|htg_setpoint |1/1-12/31|Sun Rule, !- Name
  {6d74f8f3-dd88-40ed-8ee3-1228bf0262d3}, !- Schedule Ruleset Name
  0,                                      !- Rule Order
  {e6da57bd-3bca-455a-b80b-7a5baf91f053}, !- Day Schedule Name
  Yes,                                    !- Apply Sunday
  ,                                       !- Apply Monday
  ,                                       !- Apply Tuesday
  ,                                       !- Apply Wednesday
  ,                                       !- Apply Thursday
  ,                                       !- Apply Friday
  ,                                       !- Apply Saturday
  ,                                       !- Apply Holiday
  DateRange,                              !- Date Specification Type
  1,                                      !- Start Month
  1,                                      !- Start Day
  12,                                     !- End Month
  31;                                     !- End Day

OS:Schedule:Day,
  {e6da57bd-3bca-455a-b80b-7a5baf91f053}, !- Handle
  0800|1900|AutoRepair|default|htg_setpoint |1/1-12/31|Sun, !- Name
  {73fb0825-7571-4c51-8cea-811b6014ba6b}, !- Schedule Type Limits Name
  ,                                       !- Interpolate to Timestep
  8,                                      !- Hour 1
  0,                                      !- Minute 1
  15.6111111111111,                       !- Value Until Time 1
  8,                                      !- Hour 2
  30,                                     !- Minute 2
  15.8555555555556,                       !- Value Until Time 2
  9,                                      !- Hour 3
  0,                                      !- Minute 3
  16.1,                                   !- Value Until Time 3
  9,                                      !- Hour 4
  30,                                     !- Minute 4
  16.3444444444445,                       !- Value Until Time 4
  10,                                     !- Hour 5
  0,                                      !- Minute 5
  16.5888888888889,                       !- Value Until Time 5
  10,                                     !- Hour 6
  30,                                     !- Minute 6
  16.8333333333334,                       !- Value Until Time 6
  11,                                     !- Hour 7
  0,                                      !- Minute 7
  17.0833333333334,                       !- Value Until Time 7
  11,                                     !- Hour 8
  30,                                     !- Minute 8
  17.3277777777778,                       !- Value Until Time 8
  12,                                     !- Hour 9
  0,                                      !- Minute 9
  17.5722222222223,                       !- Value Until Time 9
  12,                                     !- Hour 10
  30,                                     !- Minute 10
  17.8166666666667,                       !- Value Until Time 10
  13,                                     !- Hour 11
  0,                                      !- Minute 11
  18.0611111111111,                       !- Value Until Time 11
  13,                                     !- Hour 12
  30,                                     !- Minute 12
  18.3055555555556,                       !- Value Until Time 12
  14,                                     !- Hour 13
  0,                                      !- Minute 13
  18.5500000000001,                       !- Value Until Time 13
  14,                                     !- Hour 14
  30,                                     !- Minute 14
  18.7944444444445,                       !- Value Until Time 14
  15,                                     !- Hour 15
  0,                                      !- Minute 15
  19.0388888888889,                       !- Value Until Time 15
  15,                                     !- Hour 16
  30,                                     !- Minute 16
  19.2833333333334,                       !- Value Until Time 16
  16,                                     !- Hour 17
  0,                                      !- Minute 17
  19.5277777777778,                       !- Value Until Time 17
  16,                                     !- Hour 18
  30,                                     !- Minute 18
  19.7777777777778,                       !- Value Until Time 18
  17,                                     !- Hour 19
  0,                                      !- Minute 19
  20.0222222222222,                       !- Value Until Time 19
  17,                                     !- Hour 20
  30,                                     !- Minute 20
  20.2666666666667,                       !- Value Until Time 20
  18,                                     !- Hour 21
  0,                                      !- Minute 21
  20.5111111111112,                       !- Value Until Time 21
  18,                                     !- Hour 22
  30,                                     !- Minute 22
  20.7555555555556,                       !- Value Until Time 22
  19,                                     !- Hour 23
  0,                                      !- Minute 23
  21.0000000000001,                       !- Value Until Time 23
  24,                                     !- Hour 24
  0,                                      !- Minute 24
  15.6111111111111;                       !- Value Until Time 24

OS:Schedule:Rule,
  {7c44200c-25f6-4171-8dd9-22ae6df21136}, !- Handle
  0800|1900|AutoRepair|default|htg_setpoint |1/1-12/31|Sat Rule, !- Name
  {6d74f8f3-dd88-40ed-8ee3-1228bf0262d3}, !- Schedule Ruleset Name
  1,                                      !- Rule Order
  {9fc39e99-f53c-4e26-bf4d-9c5033b87478}, !- Day Schedule Name
  ,                                       !- Apply Sunday
  ,                                       !- Apply Monday
  ,                                       !- Apply Tuesday
  ,                                       !- Apply Wednesday
  ,                                       !- Apply Thursday
  ,                                       !- Apply Friday
  Yes,                                    !- Apply Saturday
  ,                                       !- Apply Holiday
  DateRange,                              !- Date Specification Type
  1,                                      !- Start Month
  1,                                      !- Start Day
  12,                                     !- End Month
  31;                                     !- End Day

OS:Schedule:Day,
  {9fc39e99-f53c-4e26-bf4d-9c5033b87478}, !- Handle
  0800|1900|AutoRepair|default|htg_setpoint |1/1-12/31|Sat, !- Name