
OS:Version,
  {ad55b10b-c926-420b-95c9-5ecca194ced8}, !- Handle
  1.5.5;                                  !- Version Identifier

OS:ClimateZones,
  {135edfab-17e7-40db-a436-27d385a8cd6d}, !- Handle
  ,                                       !- Active Institution
  ,                                       !- Active Year
  ASHRAE,                                 !- Climate Zone Institution Name 1
  ANSI/ASHRAE Standard 169,               !- Climate Zone Document Name 1
  2006,                                   !- Climate Zone Document Year 1
  ,                                       !- Climate Zone Value 1
  CEC,                                    !- Climate Zone Institution Name 2
  California Climate Zone Descriptions,   !- Climate Zone Document Name 2
  1995,                                   !- Climate Zone Document Year 2
  ;                                       !- Climate Zone Value 2

OS:YearDescription,
  {513d8dda-86cb-442a-b01c-1f7f0e0ac70e}; !- Handle

OS:RadianceParameters,
  {270a96f1-3c86-4b75-a667-cdf22790e2c8}, !- Handle
  1,                                      !- Accumulated Rays per Record
  0,                                      !- Direct Threshold
  1,                                      !- Direct Certainty
  1,                                      !- Direct Jitter
  1,                                      !- Direct Pretest
  6,                                      !- Ambient Bounces VMX
  2,                                      !- Ambient Bounces DMX
  4050,                                   !- Ambient Divisions VMX
  512,                                    !- Ambient Divisions DMX
  256,                                    !- Ambient Supersamples
  0.001,                                  !- Limit Weight VMX
  0.001,                                  !- Limit Weight DMX
  500,                                    !- Klems Sampling Density
  146;                                    !- Sky Discretization Resolution

OS:SimulationControl,
  {2c487a4c-bac9-4ac5-b669-1e49d9da7c2b}, !- Handle
  ,                                       !- Do Zone Sizing Calculation
  ,                                       !- Do System Sizing Calculation
  ,                                       !- Do Plant Sizing Calculation
  No,                                     !- Run Simulation for Sizing Periods
  ,                                       !- Run Simulation for Weather File Run Periods
  0.04,                                   !- Loads Convergence Tolerance Value
  ,                                       !- Temperature Convergence Tolerance Value {deltaC}
  ,                                       !- Solar Distribution
  ,                                       !- Maximum Number of Warmup Days
  2;                                      !- Minimum Number of Warmup Days

OS:Sizing:Parameters,
  {dde5af6f-7923-4600-a28a-7556673a0266}, !- Handle
  1.25,                                   !- Heating Sizing Factor
  1.15;                                   !- Cooling Sizing Factor

OS:ProgramControl,
  {05027a99-f2b3-4aeb-afc6-1425fbb4371d}; !- Handle

OS:Timestep,
  {4ebc9f1e-4707-402e-9844-67eb1ffbd522}, !- Handle
  2;                                      !- Number of Timesteps per Hour

OS:OutputControl:ReportingTolerances,
  {65797aa2-06a9-45fe-b69d-bc6e060399d3}; !- Handle

OS:ConvergenceLimits,
  {9fc11aba-8822-4f3d-970c-46391ba4040d}; !- Handle

OS:ShadowCalculation,
  {ca758bea-4416-4626-9bba-3d8795c79bd6}, !- Handle
  7,                                      !- Calculation Frequency
  15000;                                  !- Maximum Figures in Shadow Overlap Calculations

OS:SurfaceConvectionAlgorithm:Inside,
  {aaabfc36-718a-4ab0-b622-f186ebb45230}, !- Handle
  TARP;                                   !- Algorithm

OS:SurfaceConvectionAlgorithm:Outside,
  {9a0a9f6f-4bbd-4b12-a121-9492a1fcd7d6}, !- Handle
  DOE-2;                                  !- Algorithm

OS:HeatBalanceAlgorithm,
  {9d93e563-e1e0-46d7-9e39-d1c8aceb7212}, !- Handle
  ConductionTransferFunction,             !- Algorithm
  200;                                    !- Surface Temperature Upper Limit {F}

OS:ZoneAirHeatBalanceAlgorithm,
  {8520d93e-310f-4696-9bcd-36228bfdd743}, !- Handle
  AnalyticalSolution;                     !- Algorithm

OS:ZoneAirContaminantBalance,
  {eb5fc3ae-fb22-4160-8fcb-3e3b22b000d3}; !- Handle

OS:ZoneCapacitanceMultiplier:ResearchSpecial,
  {4020ce4f-5a7a-4849-8028-8305d7b751b1}, !- Handle
  ,                                       !- Temperature Capacity Multiplier
  ,                                       !- Humidity Capacity Multiplier
  ;                                       !- Carbon Dioxide Capacity Multiplier

OS:RunPeriod,
  {28df894d-6af9-4fb8-8f56-df1753344aa3}, !- Handle
  Run Period 1,                           !- Name
  1,                                      !- Begin Month
  1,                                      !- Begin Day of Month
  12,                                     !- End Month
  31,                                     !- End Day of Month
  ,                                       !- Use Weather File Holidays and Special Days
  ,                                       !- Use Weather File Daylight Saving Period
  ,                                       !- Apply Weekend Holiday Rule
  ,                                       !- Use Weather File Rain Indicators
  ,                                       !- Use Weather File Snow Indicators
  ;                                       !- Number of Times Runperiod to be Repeated

OS:Building,
  {bf305633-c5a1-4881-9edf-ca5e1a8e1274}, !- Handle
  Building 1,                             !- Name
  ,                                       !- Building Sector Type
  ,                                       !- North Axis {deg}
  ,                                       !- Nominal Floor to Floor Height {m}
  ,                                       !- Space Type Name
  ,                                       !- Default Construction Set Name
  {3acc61d1-b4c5-4cb6-82db-9478401f5e76}, !- Default Schedule Set Name
  ,                                       !- Standards Number of Stories
  ,                                       !- Standards Number of Above Ground Stories
  AutoSales;                              !- Standards Building Type

OS:LifeCycleCost:Parameters,
  {231cf8a0-f0e7-4251-a99f-11f0d464e661}, !- Handle
  FEMP,                                   !- Analysis Type
  ,                                       !- Discounting Convention
  ,                                       !- Inflation Approach
  ,                                       !- Real Discount Rate
  ,                                       !- Nominal Discount Rate
  ,                                       !- Inflation
  ,                                       !- Base Date Month
  ,                                       !- Base Date Year
  ,                                       !- Service Date Month
  ,                                       !- Service Date Year
  ,                                       !- Length of Study Period in Years
  ,                                       !- Tax Rate
  ,                                       !- Depreciation Method
  Yes;                                    !- Use NIST Fuel Escalation Rates

OS:Facility,
  {3ba8e45b-b833-44eb-a723-ea6c3946dc96}; !- Handle

OS:SpaceType,
  {45a56654-6d71-415c-9875-56121a2bdad3}, !- Handle
  AutoSales|BlendFront|DOE Ref 2004|ASHRAE 169-2006-5A, !- Name
  {bfab6da0-5673-4aa4-9042-8035aeb7a416}, !- Default Construction Set Name
  ,                                       !- Default Schedule Set Name
  {fd33b1c7-00b3-44f4-873e-0a03cb31dc37}, !- Group Rendering Name
  {1b15cb74-2337-46c3-b09a-8405293e74dc}, !- Design Specification Outdoor Air Object Name
  AutoSales,                              !- Standards Building Type
  BlendFront;                             !- Standards Space Type

OS:Rendering:Color,
  {fd33b1c7-00b3-44f4-873e-0a03cb31dc37}, !- Handle
  Rendering Color 1,                      !- Name
  120,                                    !- Rendering Red Value
  120,                                    !- Rendering Green Value
  120;                                    !- Rendering Blue Value

OS:SpaceType,
  {ed0f11af-ea95-47da-b6fc-e2fab6f75dff}, !- Handle
  AutoSales|Garage|DOE Ref 2004|ASHRAE 169-2006-5A, !- Name
  {bfab6da0-5673-4aa4-9042-8035aeb7a416}, !- Default Construction Set Name
  {f8aac1cb-f6ee-48f8-b37c-99b058a38b4a}, !- Default Schedule Set Name
  {a3005b50-f805-45e1-a57f-d64366742c7a}, !- Group Rendering Name
  {e23dbb8a-dd12-4a97-bad0-92be0c7d3e3b}, !- Design Specification Outdoor Air Object Name
  AutoSales,                              !- Standards Building Type
  Garage;                                 !- Standards Space Type

OS:Rendering:Color,
  {a3005b50-f805-45e1-a57f-d64366742c7a}, !- Handle
  Rendering Color 2,                      !- Name
  120,                                    !- Rendering Red Value
  120,                                    !- Rendering Green Value
  120;                                    !- Rendering Blue Value

OS:SpaceType,
  {9dd0355f-2f8a-4032-90ab-822d526f8aab}, !- Handle
  AutoSales|Restroom|DOE Ref 2004|ASHRAE 169-2006-5A, !- Name
  {bfab6da0-5673-4aa4-9042-8035aeb7a416}, !- Default Construction Set Name
  {670b435c-cec0-40ba-831a-526be6a10d86}, !- Default Schedule Set Name
  {1de6e974-9432-4b3c-bea5-04c3ff84619b}, !- Group Rendering Name
  {fae9e237-3eaf-412c-8406-32fdafec4590}, !- Design Specification Outdoor Air Object Name
  AutoSales,                              !- Standards Building Type
  Restroom;                               !- Standards Space Type

OS:Rendering:Color,
  {1de6e974-9432-4b3c-bea5-04c3ff84619b}, !- Handle
  Rendering Color 3,                      !- Name
  169,                                    !- Rendering Red Value
  169,                                    !- Rendering Green Value
  31;                                     !- Rendering Blue Value

OS:Schedule:Ruleset,
  {c38cdcd2-b288-4325-90bf-cec146024c37}, !- Handle
  0900|2000|AutoSales|default|hoo,        !- Name
  {5dde51c3-6a5c-4d7d-8ffa-1c86a1c09b73}, !- Schedule Type Limits Name
  {20ffa436-d34f-4988-82a5-947554d2483d}, !- Default Day Schedule Name
  {90f02366-6207-49bc-a2a7-244550390c97}, !- Summer Design Day Schedule Name
  {845bfc74-0ecf-4a21-89ed-45c7632fe9a0}; !- Winter Design Day Schedule Name

OS:Schedule:Day,
  {20ffa436-d34f-4988-82a5-947554d2483d}, !- Handle
  0900|2000|AutoSales|default|hoo Schedule Week Day, !- Name
  {5dde51c3-6a5c-4d7d-8ffa-1c86a1c09b73}, !- Schedule Type Limits Name
  ,                                       !- Interpolate to Timestep
  9,                                      !- Hour 1
  0,                                      !- Minute 1
  0,                                      !- Value Until Time 1
  20,                                     !- Hour 2
  0,                                      !- Minute 2
  1,                                      !- Value Until Time 2
  24,                                     !- Hour 3
  0,                                      !- Minute 3
  0;                                      !- Value Until Time 3

OS:Schedule:Day,
  {d4ec82eb-981b-4cd0-8b4e-e611598886b6}, !- Handle
  Schedule Day 2,                         !- Name
  ,                                       !- Schedule Type Limits Name
  ,                                       !- Interpolate to Timestep
  24,                                     !- Hour 1
  0,                                      !- Minute 1
  0;                                      !- Value Until Time 1

OS:Schedule:Day,
  {845bfc74-0ecf-4a21-89ed-45c7632fe9a0}, !- Handle
  0900|2000|AutoSales|default|hoo Winter Design Day, !- Name
  {5dde51c3-6a5c-4d7d-8ffa-1c86a1c09b73}, !- Schedule Type Limits Name
  ,                                       !- Interpolate to Timestep
  24,                                     !- Hour 1
  0,                                      !- Minute 1
  0;                                      !- Value Until Time 1

OS:Schedule:Day,
  {13c3ff52-e9cb-4df9-9704-3ebf2a53edbb}, !- Handle
  Schedule Day 3,                         !- Name
  ,                                       !- Schedule Type Limits Name
  ,                                       !- Interpolate to Timestep
  24,                                     !- Hour 1
  0,                                      !- Minute 1
  0;                                      !- Value Until Time 1

OS:Schedule:Day,
  {90f02366-6207-49bc-a2a7-244550390c97}, !- Handle
  0900|2000|AutoSales|default|hoo Summer Design Day, !- Name
  {5dde51c3-6a5c-4d7d-8ffa-1c86a1c09b73}, !- Schedule Type Limits Name
  ,                                       !- Interpolate to Timestep
  24,                                     !- Hour 1
  0,                                      !- Minute 1
  1;                                      !- Value Until Time 1

OS:DefaultScheduleSet,
  {3acc61d1-b4c5-4cb6-82db-9478401f5e76}, !- Handle
  Building Hours of Operation,            !- Name
  {c38cdcd2-b288-4325-90bf-cec146024c37}, !- Hours of Operation Schedule Name
  ,                                       !- Number of People Schedule Name
  ,                                       !- People Activity Level Schedule Name
  ,                                       !- Lighting Schedule Name
  ,                                       !- Electric Equipment Schedule Name
  ,                                       !- Gas Equipment Schedule Name
  ,                                       !- Hot Water Equipment Schedule Name
  ,                                       !- Infiltration Schedule Name
  ,                                       !- Steam Equipment Schedule Name
  ;                                       !- Other Equipment Schedule Name

OS:ScheduleTypeLimits,
  {5dde51c3-6a5c-4d7d-8ffa-1c86a1c09b73}, !- Handle
  OnOff,                                  !- Name
  0,                                      !- Lower Limit Value {BasedOnField A4}
  1,                                      !- Upper Limit Value {BasedOnField A4}
  Discrete,                               !- Numeric Type
  Availability;                           !- Unit Type

OS:Schedule:Ruleset,
  {a1fbe0eb-ccb5-40e3-bbd7-22cc8b369983}, !- Handle
  0900|2000|AutoSales|default|lighting,   !- Name
  {de5aa8a2-9899-4a52-8cd0-be27d0a0f0a6}, !- Schedule Type Limits Name
  {8504a265-46e6-437e-954b-14e9c677c92e}, !- Default Day Schedule Name
  {78b94c5e-c123-4a7a-b9b4-704835193a4c}, !- Summer Design Day Schedule Name
  {f1df4000-1068-4206-82a8-e7217af0f1b9}; !- Winter Design Day Schedule Name

OS:ScheduleTypeLimits,
  {de5aa8a2-9899-4a52-8cd0-be27d0a0f0a6}, !- Handle
  Lights Schedule Type Limits,            !- Name
  0,                                      !- Lower Limit Value {BasedOnField A4}
  1,                                      !- Upper Limit Value {BasedOnField A4}
  Continuous,                             !- Numeric Type
  Dimensionless;                          !- Unit Type

OS:Schedule:Day,
  {8504a265-46e6-437e-954b-14e9c677c92e}, !- Handle
  0900|2000|AutoSales|default|lighting |default, !- Name
  {de5aa8a2-9899-4a52-8cd0-be27d0a0f0a6}, !- Schedule Type Limits Name
  ,                                       !- Interpolate to Timestep
  6,                                      !- Hour 1
  0,                                      !- Minute 1
  0.05,                                   !- Value Until Time 1
  6,                                      !- Hour 2
  30,                                     !- Minute 2
  0.1,                                    !- Value Until Time 2
  7,                                      !- Hour 3
  0,                                      !- Minute 3
  0.15,                                   !- Value Until Time 3
  7,                                      !- Hour 4
  30,                                     !- Minute 4
  0.21,                                   !- Value Until Time 4
  8,                                      !- Hour 5
  0,                                      !- Minute 5
  0.26,                                   !- Value Until Time 5
  8,                                      !- Hour 6
  30,                                     !- Minute 6
  0.31,                                   !- Value Until Time 6
  9,                                      !- Hour 7
  0,                                      !- Minute 7
  0.36,                                   !- Value Until Time 7
  20,                                     !- Hour 8
  0,                                      !- Minute 8
  0.9,                                    !- Value Until Time 8
  20,                                     !- Hour 9
  30,                                     !- Minute 9
  0.79,                                   !- Value Until Time 9
  21,                                     !- Hour 10
  0,                                      !- Minute 10
  0.69,                                   !- Value Until Time 10
  21,                                     !- Hour 11
  30,                                     !- Minute 11
  0.58,                                   !- Value Until Time 11
  22,                                     !- Hour 12
  0,                                      !- Minute 12
  0.48,                                   !- Value Until Time 12
  22,                                     !- Hour 13
  30,                                     !- Minute 13
  0.37,                                   !- Value Until Time 13
  23,                                     !- Hour 14
  0,                                      !- Minute 14
  0.26,                                   !- Value Until Time 14
  23,                                     !- Hour 15
  30,                                     !- Minute 15
  0.16,                                   !- Value Until Time 15
  24,                                     !- Hour 16
  0,                                      !- Minute 16
  0.05;                                   !- Value Until Time 16

OS:Schedule:Day,
  {78b94c5e-c123-4a7a-b9b4-704835193a4c}, !- Handle
  0900|2000|AutoSales|default|lighting Summer Design Day, !- Name
  {de5aa8a2-9899-4a52-8cd0-be27d0a0f0a6}, !- Schedule Type Limits Name
  ,                                       !- Interpolate to Timestep
  6,                                      !- Hour 1
  0,                                      !- Minute 1
  0.05,                                   !- Value Until Time 1
  6,                                      !- Hour 2
  30,                                     !- Minute 2
  0.1,                                    !- Value Until Time 2
  7,                                      !- Hour 3
  0,                                      !- Minute 3
  0.15,                                   !- Value Until Time 3
  7,                                      !- Hour 4
  30,                                     !- Minute 4
  0.21,                                   !- Value Until Time 4
  8,                                      !- Hour 5
  0,                                      !- Minute 5
  0.26,                                   !- Value Until Time 5
  22,                                     !- Hour 6
  30,                                     !- Minute 6
  1,                                      !- Value Until Time 6
  23,                                     !- Hour 7
  0,                                      !- Minute 7
  0.26,                                   !- Value Until Time 7
  23,                                     !- Hour 8
  30,                                     !- Minute 8
  0.16,                                   !- Value Until Time 8
  24,                                     !- Hour 9
  0,                                      !- Minute 9
  0.05;                                   !- Value Until Time 9

OS:Schedule:Day,
  {f1df4000-1068-4206-82a8-e7217af0f1b9}, !- Handle
  0900|2000|AutoSales|default|lighting Winter Design Day, !- Name
  {de5aa8a2-9899-4a52-8cd0-be27d0a0f0a6}, !- Schedule Type Limits Name
  ,                                       !- Interpolate to Timestep
  24,                                     !- Hour 1
  0,                                      !- Minute 1
  0.05;                                   !- Value Until Time 1

OS:Schedule:Rule,
  {8721ef8d-8341-46ba-ae93-98efadbd5df4}, !- Handle
  0900|2000|AutoSales|default|lighting |1/1-12/31|Sun Rule, !- Name
  {a1fbe0eb-ccb5-40e3-bbd7-22cc8b369983}, !- Schedule Ruleset Name
  0,                                      !- Rule Order
  {4f11394d-9879-457a-9e49-530f048480d1}, !- Day Schedule Name
  Yes,                                    !- Apply Sunday
  ,                                       !- Apply Monday
  ,                                       !- Apply Tuesday
  ,                                       !- Apply Wednesday
  ,                                       !- Apply Thursday
  ,                                       !- Apply Friday
  ,                                       !- Apply Saturday
  ,                                       !- Apply Holiday
  DateRange,                              !- Date Specification Type
  1,                                      !- Start Month
  1,                                      !- Start Day
  12,                                     !- End Month
  31;                                     !- End Day

OS:Schedule:Day,
  {4f11394d-9879-457a-9e49-530f048480d1}, !- Handle
  0900|2000|AutoSales|default|lighting |1/1-12/31|Sun, !- Name
  {de5aa8a2-9899-4a52-8cd0-be27d0a0f0a6}, !- Schedule Type Limits Name
  ,                                       !- Interpolate to Timestep
  24,                                     !- Hour 1
  0,                                      !- Minute 1
  0.05;                                   !- Value Until Time 1

OS:Schedule:Rule,
  {222c8fc0-9cad-4c18-bc4e-96ea3616138f}, !- Handle
  0900|2000|AutoSales|default|lighting |1/1-12/31|Sat Rule, !- Name
  {a1fbe0eb-ccb5-40e3-bbd7-22cc8b369983}, !- Schedule Ruleset Name
  1,                                      !- Rule Order
  {59746c02-5a82-4214-8640-4d5b7ccf2e0b}, !- Day Schedule Name
  ,                                       !- Apply Sunday
  ,                                       !- Apply Monday
  ,                                       !- Apply Tuesday
  ,                                       !- Apply Wednesday
  ,                                       !- Apply Thursday
  ,                                       !- Apply Friday
  Yes,                                    !- Apply Saturday
  ,                                       !- Apply Holiday
  DateRange,                              !- Date Specification Type
  1,                                      !- Start Month
  1,                                      !- Start Day
  12,                                     !- End Month
  31;                                     !- End Day

OS:Schedule:Day,
  {59746c02-5a82-4214-8640-4d5b7ccf2e0b}, !- Handle
  0900|2000|AutoSales|default|lighting |1/1-12/31|Sat, !- Name
  {de5aa8a2-9899-4a52-8cd0-be27d0a0f0a6}, !- Schedule Type Limits Name
  ,                                       !- Interpolate to Timestep
  6,                                      !- Hour 1
  30,                                     !- Minute 1
  0.05,                                   !- Value Until Time 1
  7,                                      !- Hour 2
  30,                                     !- Minute 2
  0.06,                                   !- Value Until Time 2
  8,                                      !- Hour 3
  30,                                     !- Minute 3
  0.07,                                   !- Value Until Time 3
  9,                                      !- Hour 4
  0,                                      !- Minute 4
  0.08,                                   !- Value Until Time 4
  17,                                     !- Hour 5
  0,                                      !- Minute 5
  0.5,                                    !- Value Until Time 5
  17,                                     !- Hour 6
  30,                                     !- Minute 6
  0.44,                                   !- Value Until Time 6
  18,                                     !- Hour 7
  0,                                      !- Minute 7
  0.39,                                   !- Value Until Time 7
  18,                                     !- Hour 8
  30,                                     !- Minute 8
  0.33,                                   !- Value Until Time 8
  19,                                     !- Hour 9
  0,                                      !- Minute 9
  0.28,                                   !- Value Until Time 9
  19,                                     !- Hour 10
  30,                                     !- Minute 10
  0.22,                                   !- Value Until Time 10
  20,                                     !- Hour 11
  0,                                      !- Minute 11
  0.16,                                   !- Value Until Time 11
  20,                                     !- Hour 12
  30,                                     !- Minute 12
  0.11,                                   !- Value Until Time 12
  24,                                     !- Hour 13
  0,                                      !- Minute 13
  0.05;                                   !- Value Until Time 13

OS:Schedule:Ruleset,
  {4b91f3a0-1f7b-4300-b3c4-a4f7a88dcdf7}, !- Handle
  0900|2000|AutoSales|Garage|htg_setpoint, !- Name
  {8ee2f392-8693-4871-9b84-a6935bf9593c}, !- Schedule Type Limits Name
  {8d2c6e93-91b7-46d2-9a41-8dafd57bc0a6}, !- Default Day Schedule Name
  {8bfa8728-1c0d-4b29-9839-360d440ecd16}, !- Summer Design Day Schedule Name
  {27931988-a6db-4b0d-9649-886be3210272}; !- Winter Design Day Schedule Name

OS:ScheduleTypeLimits,
  {8ee2f392-8693-4871-9b84-a6935bf9593c}, !- Handle
  Thermostat Heating Setpoint Schedule Type Limits, !- Name
  0,                                      !- Lower Limit Value {BasedOnField A4}
  100,                                    !- Upper Limit Value {BasedOnField A4}
  Continuous,                             !- Numeric Type
  Temperature;                            !- Unit Type

OS:Schedule:Day,
  {8d2c6e93-91b7-46d2-9a41-8dafd57bc0a6}, !- Handle
  0900|2000|AutoSales|Garage|htg_setpoint |default, !- Name
  {8ee2f392-8693-4871-9b84-a6935bf9593c}, !- Schedule Type Limits Name
  ,                                       !- Interpolate to Timestep
  24,                                     !- Hour 1
  0,                                      !- Minute 1
  10.0000000000001;                       !- Value Until Time 1

OS:Schedule:Day,
  {8bfa8728-1c0d-4b29-9839-360d440ecd16}, !- Handle
  0900|2000|AutoSales|Garage|htg_setpoint Summer Design Day, !- Name
  {8ee2f392-8693-4871-9b84-a6935bf9593c}, !- Schedule Type Limits Name
  ,                                       !- Interpolate to Timestep
  24,                                     !- Hour 1
  0,                                      !- Minute 1
  10.0000000000001;                       !- Value Until Time 1

OS:Schedule:Day,
  {27931988-a6db-4b0d-9649-886be3210272}, !- Handle
  0900|2000|AutoSales|Garage|htg_setpoint Winter Design Day, !- Name
  {8ee2f392-8693-4871-9b84-a6935bf9593c}, !- Schedule Type Limits Name
  ,                                       !- Interpolate to Timestep
  24,                                     !- Hour 1
  0,                                      !- Minute 1
  10.0000000000001;                       !- Value Until Time 1

OS:Schedule:Rule,
  {78ee744b-1723-4bc3-b2f3-390d76a49061}, !- Handle
  0900|2000|AutoSales|Garage|htg_setpoint |1/1-12/31|Sun Rule, !- Name
  {4b91f3a0-1f7b-4300-b3c4-a4f7a88dcdf7}, !- Schedule Ruleset Name
  0,                                      !- Rule Order
  {15e97ca4-27af-43db-ae47-859cc86f5825}, !- Day Schedule Name
  Yes,                                    !- Apply Sunday
  ,                                       !- Apply Monday
  ,                                       !- Apply Tuesday
  ,                                       !- Apply Wednesday
  ,                                       !- Apply Thursday
  ,                                       !- Apply Friday
  ,                                       !- Apply Saturday
  ,                                       !- Apply Holiday
  DateRange,                              !- Date Specification Type
  1,                                      !- Start Month
  1,                                      !- Start Day
  12,                                     !- End Month
  31;                                     !- End Day

OS:Schedule:Day,
  {15e97ca4-27af-43db-ae47-859cc86f5825}, !- Handle
  0900|2000|AutoSales|Garage|htg_setpoint |1/1-12/31|Sun, !- Name
  {8ee2f392-8693-4871-9b84-a6935bf9593c}, !- Schedule Type Limits Name
  ,                                       !- Interpolate to Timestep
  24,                                     !- Hour 1
  0,                                      !- Minute 1
  10.0000000000001;                       !- Value Until Time 1

OS:Schedule:Rule,
  {1be93eca-59f5-4669-8248-b093f6315abb}, !- Handle
  0900|2000|AutoSales|Garage|htg_setpoint |1/1-12/31|Sat Rule, !- Name
  {4b91f3a0-1f7b-4300-b3c4-a4f7a88dcdf7}, !- Schedule Ruleset Name
  1,                                      !- Rule Order
  {ea70ef94-17e2-4c82-b2f4-6f3ba2ec9112}, !- Day Schedule Name
  ,                                       !- Apply Sunday
  ,                                       !- Apply Monday
  ,                                       !- Apply Tuesday
  ,                                       !- Apply Wednesday
  ,                                       !- Apply Thursday
  ,                                       !- Apply Friday
  Yes,                                    !- Apply Saturday
  ,                                       !- Apply Holiday
  DateRange,                              !- Date Specification Type