
OS:Version,
  {86b5220d-0fd4-462a-ad42-a5410666864a}, !- Handle
  1.5.5;                                  !- Version Identifier

OS:ClimateZones,
  {135edfab-17e7-40db-a436-27d385a8cd6d}, !- Handle
  ,                                       !- Active Institution
  ,                                       !- Active Year
  ASHRAE,                                 !- Climate Zone Institution Name 1
  ANSI/ASHRAE Standard 169,               !- Climate Zone Document Name 1
  2006,                                   !- Climate Zone Document Year 1
  ,                                       !- Climate Zone Value 1
  CEC,                                    !- Climate Zone Institution Name 2
  California Climate Zone Descriptions,   !- Climate Zone Document Name 2
  1995,                                   !- Climate Zone Document Year 2
  ;                                       !- Climate Zone Value 2

OS:YearDescription,
  {513d8dda-86cb-442a-b01c-1f7f0e0ac70e}; !- Handle

OS:RadianceParameters,
  {270a96f1-3c86-4b75-a667-cdf22790e2c8}, !- Handle
  1,                                      !- Accumulated Rays per Record
  0,                                      !- Direct Threshold
  1,                                      !- Direct Certainty
  1,                                      !- Direct Jitter
  1,                                      !- Direct Pretest
  6,                                      !- Ambient Bounces VMX
  2,                                      !- Ambient Bounces DMX
  4050,                                   !- Ambient Divisions VMX
  512,                                    !- Ambient Divisions DMX
  256,                                    !- Ambient Supersamples
  0.001,                                  !- Limit Weight VMX
  0.001,                                  !- Limit Weight DMX
  500,                                    !- Klems Sampling Density
  146;                                    !- Sky Discretization Resolution

OS:SimulationControl,
  {2c487a4c-bac9-4ac5-b669-1e49d9da7c2b}, !- Handle
  ,                                       !- Do Zone Sizing Calculation
  ,                                       !- Do System Sizing Calculation
  ,                                       !- Do Plant Sizing Calculation
  No,                                     !- Run Simulation for Sizing Periods
  ,                                       !- Run Simulation for Weather File Run Periods
  0.04,                                   !- Loads Convergence Tolerance Value
  ,                                       !- Temperature Convergence Tolerance Value {deltaC}
  ,                                       !- Solar Distribution
  ,                                       !- Maximum Number of Warmup Days
  2;                                      !- Minimum Number of Warmup Days

OS:Sizing:Parameters,
  {dde5af6f-7923-4600-a28a-7556673a0266}, !- Handle
  1.25,                                   !- Heating Sizing Factor
  1.15;                                   !- Cooling Sizing Factor

OS:ProgramControl,
  {05027a99-f2b3-4aeb-afc6-1425fbb4371d}; !- Handle

OS:Timestep,
  {4ebc9f1e-4707-402e-9844-67eb1ffbd522}, !- Handle
  2;                                      !- Number of Timesteps per Hour

OS:OutputControl:ReportingTolerances,
  {65797aa2-06a9-45fe-b69d-bc6e060399d3}; !- Handle

OS:ConvergenceLimits,
  {9fc11aba-8822-4f3d-970c-46391ba4040d}; !- Handle

OS:ShadowCalculation,
  {ca758bea-4416-4626-9bba-3d8795c79bd6}, !- Handle
  7,                                      !- Calculation Frequency
  15000;                                  !- Maximum Figures in Shadow Overlap Calculations

OS:SurfaceConvectionAlgorithm:Inside,
  {aaabfc36-718a-4ab0-b622-f186ebb45230}, !- Handle
  TARP;                                   !- Algorithm

OS:SurfaceConvectionAlgorithm:Outside,
  {9a0a9f6f-4bbd-4b12-a121-9492a1fcd7d6}, !- Handle
  DOE-2;                                  !- Algorithm

OS:HeatBalanceAlgorithm,
  {9d93e563-e1e0-46d7-9e39-d1c8aceb7212}, !- Handle
  ConductionTransferFunction,             !- Algorithm
  200;                                    !- Surface Temperature Upper Limit {F}

OS:ZoneAirHeatBalanceAlgorithm,
  {8520d93e-310f-4696-9bcd-36228bfdd743}, !- Handle
  AnalyticalSolution;                     !- Algorithm

OS:ZoneAirContaminantBalance,
  {eb5fc3ae-fb22-4160-8fcb-3e3b22b000d3}; !- Handle

OS:ZoneCapacitanceMultiplier:ResearchSpecial,
  {4020ce4f-5a7a-4849-8028-8305d7b751b1}, !- Handle
  ,                                       !- Temperature Capacity Multiplier
  ,                                       !- Humidity Capacity Multiplier
  ;                                       !- Carbon Dioxide Capacity Multiplier

OS:RunPeriod,
  {28df894d-6af9-4fb8-8f56-df1753344aa3}, !- Handle
  Run Period 1,                           !- Name
  1,                                      !- Begin Month
  1,                                      !- Begin Day of Month
  12,                                     !- End Month
  31,                                     !- End Day of Month
  ,                                       !- Use Weather File Holidays and Special Days
  ,                                       !- Use Weather File Daylight Saving Period
  ,                                       !- Apply Weekend Holiday Rule
  ,                                       !- Use Weather File Rain Indicators
  ,                                       !- Use Weather File Snow Indicators
  ;                                       !- Number of Times Runperiod to be Repeated

OS:Building,
  {bf305633-c5a1-4881-9edf-ca5e1a8e1274}, !- Handle
  Building 1,                             !- Name
  ,                                       !- Building Sector Type
  ,                                       !- North Axis {deg}
  ,                                       !- Nominal Floor to Floor Height {m}
  ,                                       !- Space Type Name
  ,                                       !- Default Construction Set Name
  {e96ada20-f02c-49dc-8efa-0a60e555390d}, !- Default Schedule Set Name
  ,                                       !- Standards Number of Stories
  ,                                       !- Standards Number of Above Ground Stories
  AutoRepair;                             !- Standards Building Type

OS:LifeCycleCost:Parameters,
  {231cf8a0-f0e7-4251-a99f-11f0d464e661}, !- Handle
  FEMP,                                   !- Analysis Type
  ,                                       !- Discounting Convention
  ,                                       !- Inflation Approach
  ,                                       !- Real Discount Rate
  ,                                       !- Nominal Discount Rate
  ,                                       !- Inflation
  ,                                       !- Base Date Month
  ,                                       !- Base Date Year
  ,                                       !- Service Date Month
  ,                                       !- Service Date Year
  ,                                       !- Length of Study Period in Years
  ,                                       !- Tax Rate
  ,                                       !- Depreciation Method
  Yes;                                    !- Use NIST Fuel Escalation Rates

OS:Facility,
  {3ba8e45b-b833-44eb-a723-ea6c3946dc96}; !- Handle

OS:SpaceType,
  {d4cbd001-b7b9-451e-a609-e87ea60e9107}, !- Handle
  AutoRepair|Garage|DOE Ref 2004|ASHRAE 169-2006-5A, !- Name
  {a97b57e9-8db6-4c23-a8f8-8537be2448b0}, !- Default Construction Set Name
  {87af9551-3370-4b16-8bf4-777f186040fd}, !- Default Schedule Set Name
  {07711178-dac3-4103-9a71-4ccf8f06fa1e}, !- Group Rendering Name
  {1cbf6312-5fc6-46c1-bae2-0a0d3f878d0e}, !- Design Specification Outdoor Air Object Name
  AutoRepair,                             !- Standards Building Type
  Garage;                                 !- Standards Space Type

OS:Rendering:Color,
  {07711178-dac3-4103-9a71-4ccf8f06fa1e}, !- Handle
  Rendering Color 1,                      !- Name
  120,                                    !- Rendering Red Value
  120,                                    !- Rendering Green Value
  120;                                    !- Rendering Blue Value

OS:SpaceType,
  {f712d2d2-a717-4ff8-8713-723388d1c8fe}, !- Handle
  AutoRepair|BlendFront|DOE Ref 2004|ASHRAE 169-2006-5A, !- Name
  {a97b57e9-8db6-4c23-a8f8-8537be2448b0}, !- Default Construction Set Name
  ,                                       !- Default Schedule Set Name
  {e1bb261e-e503-47c5-bc10-ac9d6d99871d}, !- Group Rendering Name
  {85bbf872-3389-46de-b592-32bc74435ba3}, !- Design Specification Outdoor Air Object Name
  AutoRepair,                             !- Standards Building Type
  BlendFront;                             !- Standards Space Type

OS:Rendering:Color,
  {e1bb261e-e503-47c5-bc10-ac9d6d99871d}, !- Handle
  Rendering Color 2,                      !- Name
  230,                                    !- Rendering Red Value
  157,                                    !- Rendering Green Value
  120;                                    !- Rendering Blue Value

OS:SpaceType,
  {acc676ea-0517-4584-b677-f1e9f3bef6a9}, !- Handle
  AutoRepair|Restroom|DOE Ref 2004|ASHRAE 169-2006-5A, !- Name
  {a97b57e9-8db6-4c23-a8f8-8537be2448b0}, !- Default Construction Set Name
  {19fc82f1-7617-4666-b995-b07d1cc766d8}, !- Default Schedule Set Name
  {13b09038-050c-4353-860d-ebae0f7afdba}, !- Group Rendering Name
  {d84209ab-dba2-43c8-846f-aabafcbe607c}, !- Design Specification Outdoor Air Object Name
  AutoRepair,                             !- Standards Building Type
  Restroom;                               !- Standards Space Type

OS:Rendering:Color,
  {13b09038-050c-4353-860d-ebae0f7afdba}, !- Handle
  Rendering Color 3,                      !- Name
  169,                                    !- Rendering Red Value
  169,                                    !- Rendering Green Value
  31;                                     !- Rendering Blue Value

OS:Schedule:Ruleset,
  {0d2c29e0-ec35-45e2-a229-26502a227a26}, !- Handle
  0800|1900|AutoRepair|default|hoo,       !- Name
  {46ad30d1-2e92-47b7-a9e3-32f702f116e1}, !- Schedule Type Limits Name
  {e3dbf946-e28a-40c3-94c6-bb8083399ae8}, !- Default Day Schedule Name
  {ff6592a4-99ce-4deb-89eb-4cb68142f34d}, !- Summer Design Day Schedule Name
  {8dd245e9-acbc-4cca-a11f-c0e7a98f3501}; !- Winter Design Day Schedule Name

OS:Schedule:Day,
  {e3dbf946-e28a-40c3-94c6-bb8083399ae8}, !- Handle
  0800|1900|AutoRepair|default|hoo Schedule Week Day, !- Name
  {46ad30d1-2e92-47b7-a9e3-32f702f116e1}, !- Schedule Type Limits Name
  ,                                       !- Interpolate to Timestep
  8,                                      !- Hour 1
  0,                                      !- Minute 1
  0,                                      !- Value Until Time 1
  19,                                     !- Hour 2
  0,                                      !- Minute 2
  1,                                      !- Value Until Time 2
  24,                                     !- Hour 3
  0,                                      !- Minute 3
  0;                                      !- Value Until Time 3

OS:Schedule:Day,
  {01f37969-d1fe-41c6-8df2-111627fa3186}, !- Handle
  Schedule Day 2,                         !- Name
  ,                                       !- Schedule Type Limits Name
  ,                                       !- Interpolate to Timestep
  24,                                     !- Hour 1
  0,                                      !- Minute 1
  0;                                      !- Value Until Time 1

OS:Schedule:Day,
  {8dd245e9-acbc-4cca-a11f-c0e7a98f3501}, !- Handle
  0800|1900|AutoRepair|default|hoo Winter Design Day, !- Name
  {46ad30d1-2e92-47b7-a9e3-32f702f116e1}, !- Schedule Type Limits Name
  ,                                       !- Interpolate to Timestep
  24,                                     !- Hour 1
  0,                                      !- Minute 1
  0;                                      !- Value Until Time 1

OS:Schedule:Day,
  {c019da4a-4516-43d7-9ccc-378470e149b0}, !- Handle
  Schedule Day 3,                         !- Name
  ,                                       !- Schedule Type Limits Name
  ,                                       !- Interpolate to Timestep
  24,                                     !- Hour 1
  0,                                      !- Minute 1
  0;                                      !- Value Until Time 1

OS:Schedule:Day,
  {ff6592a4-99ce-4deb-89eb-4cb68142f34d}, !- Handle
  0800|1900|AutoRepair|default|hoo Summer Design Day, !- Name
  {46ad30d1-2e92-47b7-a9e3-32f702f116e1}, !- Schedule Type Limits Name
  ,                                       !- Interpolate to Timestep
  24,                                     !- Hour 1
  0,                                      !- Minute 1
  1;                                      !- Value Until Time 1

OS:DefaultScheduleSet,
  {e96ada20-f02c-49dc-8efa-0a60e555390d}, !- Handle
  Building Hours of Operation,            !- Name
  {0d2c29e0-ec35-45e2-a229-26502a227a26}, !- Hours of Operation Schedule Name
  ,                                       !- Number of People Schedule Name
  ,                                       !- People Activity Level Schedule Name
  ,                                       !- Lighting Schedule Name
  ,                                       !- Electric Equipment Schedule Name
  ,                                       !- Gas Equipment Schedule Name
  ,                                       !- Hot Water Equipment Schedule Name
  ,                                       !- Infiltration Schedule Name
  ,                                       !- Steam Equipment Schedule Name
  ;                                       !- Other Equipment Schedule Name

OS:ScheduleTypeLimits,
  {46ad30d1-2e92-47b7-a9e3-32f702f116e1}, !- Handle
  OnOff,                                  !- Name
  0,                                      !- Lower Limit Value {BasedOnField A4}
  1,                                      !- Upper Limit Value {BasedOnField A4}
  Discrete,                               !- Numeric Type
  Availability;                           !- Unit Type

OS:Schedule:Ruleset,
  {d996233b-55c2-4797-8b87-de06903ae3e2}, !- Handle
  0800|1900|AutoRepair|default|activity,  !- Name
  {3e48e136-d7a6-45e4-8e6d-51128c4e143d}, !- Schedule Type Limits Name
  {223f5801-d170-4c9a-865f-bf18fc64cf2a}, !- Default Day Schedule Name
  {786c8825-2d8c-4550-928b-8d0b344b3981}, !- Summer Design Day Schedule Name
  {c68d2b17-808e-497d-ade8-1d363deaa181}; !- Winter Design Day Schedule Name

OS:ScheduleTypeLimits,
  {3e48e136-d7a6-45e4-8e6d-51128c4e143d}, !- Handle
  People Activity Type Limits,            !- Name
  0,                                      !- Lower Limit Value {BasedOnField A4}
  ,                                       !- Upper Limit Value {BasedOnField A4}
  Continuous,                             !- Numeric Type
  ActivityLevel;                          !- Unit Type

OS:Schedule:Day,
  {223f5801-d170-4c9a-865f-bf18fc64cf2a}, !- Handle
  0800|1900|AutoRepair|default|activity |default, !- Name
  {3e48e136-d7a6-45e4-8e6d-51128c4e143d}, !- Schedule Type Limits Name
  ,                                       !- Interpolate to Timestep
  24,                                     !- Hour 1
  0,                                      !- Minute 1
  120;                                    !- Value Until Time 1

OS:Schedule:Day,
  {786c8825-2d8c-4550-928b-8d0b344b3981}, !- Handle
  0800|1900|AutoRepair|default|activity Summer Design Day, !- Name
  {3e48e136-d7a6-45e4-8e6d-51128c4e143d}, !- Schedule Type Limits Name
  ,                                       !- Interpolate to Timestep
  24,                                     !- Hour 1
  0,                                      !- Minute 1
  120;                                    !- Value Until Time 1

OS:Schedule:Day,
  {c68d2b17-808e-497d-ade8-1d363deaa181}, !- Handle
  0800|1900|AutoRepair|default|activity Winter Design Day, !- Name
  {3e48e136-d7a6-45e4-8e6d-51128c4e143d}, !- Schedule Type Limits Name
  ,                                       !- Interpolate to Timestep
  24,                                     !- Hour 1
  0,                                      !- Minute 1
  120;                                    !- Value Until Time 1

OS:Schedule:Ruleset,
  {0fb58593-6266-45cc-9eba-4bc98fa212fc}, !- Handle
  0800|1900|AutoRepair|default|work_eff,  !- Name
  {ee946665-1daa-4122-8b7e-a0a8c189bc2e}, !- Schedule Type Limits Name
  {1715d07a-1842-4d93-9aab-24989907d4e8}, !- Default Day Schedule Name
  {92183d78-a1ef-417d-ad67-0a478d90daf7}, !- Summer Design Day Schedule Name
  {ed6d1baa-f083-479e-8191-236fdfcc7d84}; !- Winter Design Day Schedule Name

OS:ScheduleTypeLimits,
  {ee946665-1daa-4122-8b7e-a0a8c189bc2e}, !- Handle
  Fraction Schedule Type Limits,          !- Name
  0,                                      !- Lower Limit Value {BasedOnField A4}
  1,                                      !- Upper Limit Value {BasedOnField A4}
  Continuous,                             !- Numeric Type
  Dimensionless;                          !- Unit Type

OS:Schedule:Day,
  {1715d07a-1842-4d93-9aab-24989907d4e8}, !- Handle
  0800|1900|AutoRepair|default|work_eff |default, !- Name
  {ee946665-1daa-4122-8b7e-a0a8c189bc2e}, !- Schedule Type Limits Name
  ,                                       !- Interpolate to Timestep
  24,                                     !- Hour 1
  0,                                      !- Minute 1
  0;                                      !- Value Until Time 1

OS:Schedule:Day,
  {92183d78-a1ef-417d-ad67-0a478d90daf7}, !- Handle
  0800|1900|AutoRepair|default|work_eff Summer Design Day, !- Name
  {ee946665-1daa-4122-8b7e-a0a8c189bc2e}, !- Schedule Type Limits Name
  ,                                       !- Interpolate to Timestep
  24,                                     !- Hour 1
  0,                                      !- Minute 1
  0;                                      !- Value Until Time 1

OS:Schedule:Day,
  {ed6d1baa-f083-479e-8191-236fdfcc7d84}, !- Handle
  0800|1900|AutoRepair|default|work_eff Winter Design Day, !- Name
  {ee946665-1daa-4122-8b7e-a0a8c189bc2e}, !- Schedule Type Limits Name
  ,                                       !- Interpolate to Timestep
  24,                                     !- Hour 1
  0,                                      !- Minute 1
  0;                                      !- Value Until Time 1

OS:Schedule:Ruleset,
  {8c6f4ecf-4ad1-4fd5-96b8-7352209e1c41}, !- Handle
  0800|1900|AutoRepair|default|air_velocity, !- Name
  {dd7acbff-299b-482f-a53d-bd625925acac}, !- Schedule Type Limits Name
  {9b871c64-dcd6-4c6f-81ab-cf1080e4811d}, !- Default Day Schedule Name
  {bf7c77f3-a738-44d4-948d-703a7befdb64}, !- Summer Design Day Schedule Name
  {49fb3216-d1c1-4385-8198-8561c657242c}; !- Winter Design Day Schedule Name

OS:ScheduleTypeLimits,
  {dd7acbff-299b-482f-a53d-bd625925acac}, !- Handle
  Dimensionless Schedule Type Limits,     !- Name
  ,                                       !- Lower Limit Value {BasedOnField A4}
  ,                                       !- Upper Limit Value {BasedOnField A4}
  Continuous,                             !- Numeric Type
  Dimensionless;                          !- Unit Type

OS:Schedule:Day,
  {9b871c64-dcd6-4c6f-81ab-cf1080e4811d}, !- Handle
  0800|1900|AutoRepair|default|air_velocity |default, !- Name
  {dd7acbff-299b-482f-a53d-bd625925acac}, !- Schedule Type Limits Name
  ,                                       !- Interpolate to Timestep
  24,                                     !- Hour 1
  0,                                      !- Minute 1
  0.200152;                               !- Value Until Time 1

OS:Schedule:Day,
  {bf7c77f3-a738-44d4-948d-703a7befdb64}, !- Handle
  0800|1900|AutoRepair|default|air_velocity Summer Design Day, !- Name
  {dd7acbff-299b-482f-a53d-bd625925acac}, !- Schedule Type Limits Name
  ,                                       !- Interpolate to Timestep
  24,                                     !- Hour 1
  0,                                      !- Minute 1
  0.200152;                               !- Value Until Time 1

OS:Schedule:Day,
  {49fb3216-d1c1-4385-8198-8561c657242c}, !- Handle
  0800|1900|AutoRepair|default|air_velocity Winter Design Day, !- Name
  {dd7acbff-299b-482f-a53d-bd625925acac}, !- Schedule Type Limits Name
  ,                                       !- Interpolate to Timestep
  24,                                     !- Hour 1
  0,                                      !- Minute 1
  0.200152;                               !- Value Until Time 1

OS:Schedule:Ruleset,
  {89240007-fb03-4c54-892c-9a9fbd5490c4}, !- Handle
  0800|1900|AutoRepair|default|htg_setpoint, !- Name
  {00654e02-f3f7-4d8d-88cf-39e32e6d9100}, !- Schedule Type Limits Name
  {773c4e63-5125-4a87-a87a-4e96a9bb5872}, !- Default Day Schedule Name
  {5b6b7c1b-0196-40bd-a1be-07664f5fa32e}, !- Summer Design Day Schedule Name
  {aa27c290-30a9-401b-8fae-ab67a894afc6}; !- Winter Design Day Schedule Name

OS:ScheduleTypeLimits,
  {00654e02-f3f7-4d8d-88cf-39e32e6d9100}, !- Handle
  Thermostat Heating Setpoint Schedule Type Limits, !- Name
  0,                                      !- Lower Limit Value {BasedOnField A4}
  100,                                    !- Upper Limit Value {BasedOnField A4}
  Continuous,                             !- Numeric Type
  Temperature;                            !- Unit Type

OS:Schedule:Day,
  {773c4e63-5125-4a87-a87a-4e96a9bb5872}, !- Handle
  0800|1900|AutoRepair|default|htg_setpoint |default, !- Name
  {00654e02-f3f7-4d8d-88cf-39e32e6d9100}, !- Schedule Type Limits Name
  ,                                       !- Interpolate to Timestep
  6,                                      !- Hour 1
  0,                                      !- Minute 1
  15.6111111111111,                       !- Value Until Time 1
  24,                                     !- Hour 2
  0,                                      !- Minute 2
  21.0000000000001;                       !- Value Until Time 2

OS:Schedule:Day,
  {5b6b7c1b-0196-40bd-a1be-07664f5fa32e}, !- Handle
  0800|1900|AutoRepair|default|htg_setpoint Summer Design Day, !- Name
  {00654e02-f3f7-4d8d-88cf-39e32e6d9100}, !- Schedule Type Limits Name
  ,                                       !- Interpolate to Timestep
  6,                                      !- Hour 1
  0,                                      !- Minute 1
  15.6111111111111,                       !- Value Until Time 1
  24,                                     !- Hour 2
  0,                                      !- Minute 2
  21.0000000000001;                       !- Value Until Time 2

OS:Schedule:Day,
  {aa27c290-30a9-401b-8fae-ab67a894afc6}, !- Handle
  0800|1900|AutoRepair|default|htg_setpoint Winter Design Day, !- Name
  {00654e02-f3f7-4d8d-88cf-39e32e6d9100}, !- Schedule Type Limits Name
  ,                                       !- Interpolate to Timestep
  24,                                     !- Hour 1
  0,                                      !- Minute 1
  15.6111111111111;                       !- Value Until Time 1

OS:Schedule:Rule,
  {47f871f3-277d-4048-bb57-1efee4d5a01c}, !- Handle
  0800|1900|AutoRepair|default|htg_setpoint |1/1-12/31|Sun Rule, !- Name
  {89240007-fb03-4c54-892c-9a9fbd5490c4}, !- Schedule Ruleset Name
  0,                                      !- Rule Order
  {df272ee8-a06c-4905-bb28-2eb0fda1cff6}, !- Day Schedule Name
  Yes,                                    !- Apply Sunday
  ,                                       !- Apply Monday
  ,                                       !- Apply Tuesday
  ,                                       !- Apply Wednesday
  ,                                       !- Apply Thursday
  ,                                       !- Apply Friday
  ,                                       !- Apply Saturday
  ,                                       !- Apply Holiday
  DateRange,                              !- Date Specification Type
  1,                                      !- Start Month
  1,                                      !- Start Day
  12,                                     !- End Month
  31;                                     !- End Day

OS:Schedule:Day,
  {df272ee8-a06c-4905-bb28-2eb0fda1cff6}, !- Handle
  0800|1900|AutoRepair|default|htg_setpoint |1/1-12/31|Sun, !- Name
  {00654e02-f3f7-4d8d-88cf-39e32e6d9100}, !- Schedule Type Limits Name
  ,                                       !- Interpolate to Timestep
  8,                                      !- Hour 1
  0,                                      !- Minute 1
  15.6111111111111,                       !- Value Until Time 1
  8,                                      !- Hour 2
  30,                                     !- Minute 2
  15.8555555555556,                       !- Value Until Time 2
  9,                                      !- Hour 3
  0,                                      !- Minute 3
  16.1,                                   !- Value Until Time 3
  9,                                      !- Hour 4
  30,                                     !- Minute 4
  16.3444444444445,                       !- Value Until Time 4
  10,                                     !- Hour 5
  0,                                      !- Minute 5
  16.5888888888889,                       !- Value Until Time 5
  10,                                     !- Hour 6
  30,                                     !- Minute 6
  16.8333333333334,                       !- Value Until Time 6
  11,                                     !- Hour 7
  0,                                      !- Minute 7
  17.0833333333334,                       !- Value Until Time 7
  11,                                     !- Hour 8
  30,                                     !- Minute 8
  17.3277777777778,                       !- Value Until Time 8
  12,                                     !- Hour 9
  0,                                      !- Minute 9
  17.5722222222223,                       !- Value Until Time 9
  12,                                     !- Hour 10
  30,                                     !- Minute 10
  17.8166666666667,                       !- Value Until Time 10
  13,                                     !- Hour 11
  0,                                      !- Minute 11
  18.0611111111111,                       !- Value Until Time 11
  13,                                     !- Hour 12
  30,                                     !- Minute 12
  18.3055555555556,                       !- Value Until Time 12
  14,                                     !- Hour 13
  0,                                      !- Minute 13
  18.5500000000001,                       !- Value Until Time 13
  14,                                     !- Hour 14
  30,                                     !- Minute 14
  18.7944444444445,                       !- Value Until Time 14
  15,                                     !- Hour 15
  0,                                      !- Minute 15
  19.0388888888889,                       !- Value Until Time 15
  15,                                     !- Hour 16
  30,                                     !- Minute 16
  19.2833333333334,                       !- Value Until Time 16
  16,                                     !- Hour 17
  0,                                      !- Minute 17
  19.5277777777778,                       !- Value Until Time 17
  16,                                     !- Hour 18
  30,                                     !- Minute 18
  19.7777777777778,                       !- Value Until Time 18
  17,                                     !- Hour 19
  0,                                      !- Minute 19
  20.0222222222222,                       !- Value Until Time 19
  17,                                     !- Hour 20
  30,                                     !- Minute 20
  20.2666666666667,                       !- Value Until Time 20
  18,                                     !- Hour 21
  0,                                      !- Minute 21
  20.5111111111112,                       !- Value Until Time 21
  18,                                     !- Hour 22
  30,                                     !- Minute 22
  20.7555555555556,                       !- Value Until Time 22
  19,                                     !- Hour 23
  0,                                      !- Minute 23
  21.0000000000001,                       !- Value Until Time 23
  24,                                     !- Hour 24
  0,                                      !- Minute 24
  15.6111111111111;                       !- Value Until Time 24

OS:Schedule:Rule,
  {987b00c8-02b9-4e99-a38b-7c64d8bdac99}, !- Handle
  0800|1900|AutoRepair|default|htg_setpoint |1/1-12/31|Sat Rule, !- Name
  {89240007-fb03-4c54-892c-9a9fbd5490c4}, !- Schedule Ruleset Name
  1,                                      !- Rule Order
  {ef5b4c7b-04f8-4c98-a854-4a796a5d4239}, !- Day Schedule Name
  ,                                       !- Apply Sunday
  ,                                       !- Apply Monday
  ,                                       !- Apply Tuesday
  ,                                       !- Apply Wednesday
  ,                                       !- Apply Thursday
  ,                                       !- Apply Friday
  Yes,                                    !- Apply Saturday
  ,                                       !- Apply Holiday
  DateRange,                              !- Date Specification Type
  1,                                      !- Start Month
  1,                                      !- Start Day
  12,                                     !- End Month
  31;                                     !- End Day

OS:Schedule:Day,
  {ef5b4c7b-04f8-4c98-a854-4a796a5d4239}, !- Handle
  0800|1900|AutoRepair|default|htg_setpoint |1/1-12/31|Sat, !- Name