
OS:Version,
  {d41c6a9d-c411-4b75-b6f5-e15bde278226}, !- Handle
  1.5.5;                                  !- Version Identifier

OS:ClimateZones,
  {135edfab-17e7-40db-a436-27d385a8cd6d}, !- Handle
  ,                                       !- Active Institution
  ,                                       !- Active Year
  ASHRAE,                                 !- Climate Zone Institution Name 1
  ANSI/ASHRAE Standard 169,               !- Climate Zone Document Name 1
  2006,                                   !- Climate Zone Document Year 1
  ,                                       !- Climate Zone Value 1
  CEC,                                    !- Climate Zone Institution Name 2
  California Climate Zone Descriptions,   !- Climate Zone Document Name 2
  1995,                                   !- Climate Zone Document Year 2
  ;                                       !- Climate Zone Value 2

OS:YearDescription,
  {513d8dda-86cb-442a-b01c-1f7f0e0ac70e}; !- Handle

OS:RadianceParameters,
  {270a96f1-3c86-4b75-a667-cdf22790e2c8}, !- Handle
  1,                                      !- Accumulated Rays per Record
  0,                                      !- Direct Threshold
  1,                                      !- Direct Certainty
  1,                                      !- Direct Jitter
  1,                                      !- Direct Pretest
  6,                                      !- Ambient Bounces VMX
  2,                                      !- Ambient Bounces DMX
  4050,                                   !- Ambient Divisions VMX
  512,                                    !- Ambient Divisions DMX
  256,                                    !- Ambient Supersamples
  0.001,                                  !- Limit Weight VMX
  0.001,                                  !- Limit Weight DMX
  500,                                    !- Klems Sampling Density
  146;                                    !- Sky Discretization Resolution

OS:SimulationControl,
  {2c487a4c-bac9-4ac5-b669-1e49d9da7c2b}, !- Handle
  ,                                       !- Do Zone Sizing Calculation
  ,                                       !- Do System Sizing Calculation
  ,                                       !- Do Plant Sizing Calculation
  No,                                     !- Run Simulation for Sizing Periods
  ,                                       !- Run Simulation for Weather File Run Periods
  0.04,                                   !- Loads Convergence Tolerance Value
  ,                                       !- Temperature Convergence Tolerance Value {deltaC}
  ,                                       !- Solar Distribution
  ,                                       !- Maximum Number of Warmup Days
  2;                                      !- Minimum Number of Warmup Days

OS:Sizing:Parameters,
  {dde5af6f-7923-4600-a28a-7556673a0266}, !- Handle
  1.25,                                   !- Heating Sizing Factor
  1.15;                                   !- Cooling Sizing Factor

OS:ProgramControl,
  {05027a99-f2b3-4aeb-afc6-1425fbb4371d}; !- Handle

OS:Timestep,
  {4ebc9f1e-4707-402e-9844-67eb1ffbd522}, !- Handle
  2;                                      !- Number of Timesteps per Hour

OS:OutputControl:ReportingTolerances,
  {65797aa2-06a9-45fe-b69d-bc6e060399d3}; !- Handle

OS:ConvergenceLimits,
  {9fc11aba-8822-4f3d-970c-46391ba4040d}; !- Handle

OS:ShadowCalculation,
  {ca758bea-4416-4626-9bba-3d8795c79bd6}, !- Handle
  7,                                      !- Calculation Frequency
  15000;                                  !- Maximum Figures in Shadow Overlap Calculations

OS:SurfaceConvectionAlgorithm:Inside,
  {aaabfc36-718a-4ab0-b622-f186ebb45230}, !- Handle
  TARP;                                   !- Algorithm

OS:SurfaceConvectionAlgorithm:Outside,
  {9a0a9f6f-4bbd-4b12-a121-9492a1fcd7d6}, !- Handle
  DOE-2;                                  !- Algorithm

OS:HeatBalanceAlgorithm,
  {9d93e563-e1e0-46d7-9e39-d1c8aceb7212}, !- Handle
  ConductionTransferFunction,             !- Algorithm
  200;                                    !- Surface Temperature Upper Limit {F}

OS:ZoneAirHeatBalanceAlgorithm,
  {8520d93e-310f-4696-9bcd-36228bfdd743}, !- Handle
  AnalyticalSolution;                     !- Algorithm

OS:ZoneAirContaminantBalance,
  {eb5fc3ae-fb22-4160-8fcb-3e3b22b000d3}; !- Handle

OS:ZoneCapacitanceMultiplier:ResearchSpecial,
  {4020ce4f-5a7a-4849-8028-8305d7b751b1}, !- Handle
  ,                                       !- Temperature Capacity Multiplier
  ,                                       !- Humidity Capacity Multiplier
  ;                                       !- Carbon Dioxide Capacity Multiplier

OS:RunPeriod,
  {28df894d-6af9-4fb8-8f56-df1753344aa3}, !- Handle
  Run Period 1,                           !- Name
  1,                                      !- Begin Month
  1,                                      !- Begin Day of Month
  12,                                     !- End Month
  31,                                     !- End Day of Month
  ,                                       !- Use Weather File Holidays and Special Days
  ,                                       !- Use Weather File Daylight Saving Period
  ,                                       !- Apply Weekend Holiday Rule
  ,                                       !- Use Weather File Rain Indicators
  ,                                       !- Use Weather File Snow Indicators
  ;                                       !- Number of Times Runperiod to be Repeated

OS:Building,
  {bf305633-c5a1-4881-9edf-ca5e1a8e1274}, !- Handle
  Building 1,                             !- Name
  ,                                       !- Building Sector Type
  ,                                       !- North Axis {deg}
  ,                                       !- Nominal Floor to Floor Height {m}
  ,                                       !- Space Type Name
  ,                                       !- Default Construction Set Name
  {097a575c-2428-4210-a4ce-4871bda1ba5b}, !- Default Schedule Set Name
  ,                                       !- Standards Number of Stories
  ,                                       !- Standards Number of Above Ground Stories
  AutoSales;                              !- Standards Building Type

OS:LifeCycleCost:Parameters,
  {231cf8a0-f0e7-4251-a99f-11f0d464e661}, !- Handle
  FEMP,                                   !- Analysis Type
  ,                                       !- Discounting Convention
  ,                                       !- Inflation Approach
  ,                                       !- Real Discount Rate
  ,                                       !- Nominal Discount Rate
  ,                                       !- Inflation
  ,                                       !- Base Date Month
  ,                                       !- Base Date Year
  ,                                       !- Service Date Month
  ,                                       !- Service Date Year
  ,                                       !- Length of Study Period in Years
  ,                                       !- Tax Rate
  ,                                       !- Depreciation Method
  Yes;                                    !- Use NIST Fuel Escalation Rates

OS:Facility,
  {3ba8e45b-b833-44eb-a723-ea6c3946dc96}; !- Handle

OS:SpaceType,
  {cb62bb78-eef1-43a4-a0f2-6a81df8ea8ee}, !- Handle
  AutoSales|BlendFront|DOE Ref Pre-1980|ASHRAE 169-2006-5A, !- Name
  {b9770c15-d77b-4b4e-a6f1-bfd16d01cfc8}, !- Default Construction Set Name
  ,                                       !- Default Schedule Set Name
  {d19ed0e6-0f2b-46f5-9161-256f1021dea5}, !- Group Rendering Name
  {590d893e-93f6-43ae-865d-d00a56d2c794}, !- Design Specification Outdoor Air Object Name
  AutoSales,                              !- Standards Building Type
  BlendFront;                             !- Standards Space Type

OS:Rendering:Color,
  {d19ed0e6-0f2b-46f5-9161-256f1021dea5}, !- Handle
  Rendering Color 1,                      !- Name
  120,                                    !- Rendering Red Value
  120,                                    !- Rendering Green Value
  120;                                    !- Rendering Blue Value

OS:SpaceType,
  {9e147867-b48a-467a-b923-1c1298b78908}, !- Handle
  AutoSales|Garage|DOE Ref Pre-1980|ASHRAE 169-2006-5A, !- Name
  {b9770c15-d77b-4b4e-a6f1-bfd16d01cfc8}, !- Default Construction Set Name
  {84361016-f05a-4410-8abd-4c4369b29f8f}, !- Default Schedule Set Name
  {a3617292-7af0-4a91-a6ec-a3a04babcb61}, !- Group Rendering Name
  {2e26041b-03b2-4b8f-aeb6-acf540f3f2b2}, !- Design Specification Outdoor Air Object Name
  AutoSales,                              !- Standards Building Type
  Garage;                                 !- Standards Space Type

OS:Rendering:Color,
  {a3617292-7af0-4a91-a6ec-a3a04babcb61}, !- Handle
  Rendering Color 2,                      !- Name
  120,                                    !- Rendering Red Value
  120,                                    !- Rendering Green Value
  120;                                    !- Rendering Blue Value

OS:SpaceType,
  {4bccd375-c27a-4cd7-83af-1a09dea53252}, !- Handle
  AutoSales|Restroom|DOE Ref Pre-1980|ASHRAE 169-2006-5A, !- Name
  {b9770c15-d77b-4b4e-a6f1-bfd16d01cfc8}, !- Default Construction Set Name
  {bc591454-13c3-4627-a7b1-32e39b21e048}, !- Default Schedule Set Name
  {f4d89856-ad27-42f8-8896-e46eea2d6e6a}, !- Group Rendering Name
  {95043c1a-0c29-4280-944f-88e38a963da0}, !- Design Specification Outdoor Air Object Name
  AutoSales,                              !- Standards Building Type
  Restroom;                               !- Standards Space Type

OS:Rendering:Color,
  {f4d89856-ad27-42f8-8896-e46eea2d6e6a}, !- Handle
  Rendering Color 3,                      !- Name
  169,                                    !- Rendering Red Value
  169,                                    !- Rendering Green Value
  31;                                     !- Rendering Blue Value

OS:Schedule:Ruleset,
  {852d87bc-4778-4e38-979c-14b5f3a61391}, !- Handle
  0900|2000|AutoSales|default|hoo,        !- Name
  {f6e2f13b-e4a5-4b1a-a40a-7981685e15ef}, !- Schedule Type Limits Name
  {70fbc6d7-033a-4213-b537-a62a8cdc1042}, !- Default Day Schedule Name
  {7aa765d7-b2a3-4005-94aa-7f6c7feebb1e}, !- Summer Design Day Schedule Name
  {ee3f4d8c-6830-4a5c-8134-f2076ff90917}; !- Winter Design Day Schedule Name

OS:Schedule:Day,
  {70fbc6d7-033a-4213-b537-a62a8cdc1042}, !- Handle
  0900|2000|AutoSales|default|hoo Schedule Week Day, !- Name
  {f6e2f13b-e4a5-4b1a-a40a-7981685e15ef}, !- Schedule Type Limits Name
  ,                                       !- Interpolate to Timestep
  9,                                      !- Hour 1
  0,                                      !- Minute 1
  0,                                      !- Value Until Time 1
  20,                                     !- Hour 2
  0,                                      !- Minute 2
  1,                                      !- Value Until Time 2
  24,                                     !- Hour 3
  0,                                      !- Minute 3
  0;                                      !- Value Until Time 3

OS:Schedule:Day,
  {e1b13008-e183-45e8-935c-da33d9295a22}, !- Handle
  Schedule Day 2,                         !- Name
  ,                                       !- Schedule Type Limits Name
  ,                                       !- Interpolate to Timestep
  24,                                     !- Hour 1
  0,                                      !- Minute 1
  0;                                      !- Value Until Time 1

OS:Schedule:Day,
  {ee3f4d8c-6830-4a5c-8134-f2076ff90917}, !- Handle
  0900|2000|AutoSales|default|hoo Winter Design Day, !- Name
  {f6e2f13b-e4a5-4b1a-a40a-7981685e15ef}, !- Schedule Type Limits Name
  ,                                       !- Interpolate to Timestep
  24,                                     !- Hour 1
  0,                                      !- Minute 1
  0;                                      !- Value Until Time 1

OS:Schedule:Day,
  {fa07b414-c6ea-4a57-a809-1362b7b3b87d}, !- Handle
  Schedule Day 3,                         !- Name
  ,                                       !- Schedule Type Limits Name
  ,                                       !- Interpolate to Timestep
  24,                                     !- Hour 1
  0,                                      !- Minute 1
  0;                                      !- Value Until Time 1

OS:Schedule:Day,
  {7aa765d7-b2a3-4005-94aa-7f6c7feebb1e}, !- Handle
  0900|2000|AutoSales|default|hoo Summer Design Day, !- Name
  {f6e2f13b-e4a5-4b1a-a40a-7981685e15ef}, !- Schedule Type Limits Name
  ,                                       !- Interpolate to Timestep
  24,                                     !- Hour 1
  0,                                      !- Minute 1
  1;                                      !- Value Until Time 1

OS:DefaultScheduleSet,
  {097a575c-2428-4210-a4ce-4871bda1ba5b}, !- Handle
  Building Hours of Operation,            !- Name
  {852d87bc-4778-4e38-979c-14b5f3a61391}, !- Hours of Operation Schedule Name
  ,                                       !- Number of People Schedule Name
  ,                                       !- People Activity Level Schedule Name
  ,                                       !- Lighting Schedule Name
  ,                                       !- Electric Equipment Schedule Name
  ,                                       !- Gas Equipment Schedule Name
  ,                                       !- Hot Water Equipment Schedule Name
  ,                                       !- Infiltration Schedule Name
  ,                                       !- Steam Equipment Schedule Name
  ;                                       !- Other Equipment Schedule Name

OS:ScheduleTypeLimits,
  {f6e2f13b-e4a5-4b1a-a40a-7981685e15ef}, !- Handle
  OnOff,                                  !- Name
  0,                                      !- Lower Limit Value {BasedOnField A4}
  1,                                      !- Upper Limit Value {BasedOnField A4}
  Discrete,                               !- Numeric Type
  Availability;                           !- Unit Type

OS:Schedule:Ruleset,
  {c9265bd8-fff2-4735-a9cb-7900fb5ef267}, !- Handle
  0900|2000|AutoSales|default|lighting,   !- Name
  {670c76ac-2145-48a0-8200-0e3d99e20d40}, !- Schedule Type Limits Name
  {26e3bb1f-0042-4d17-86c2-4f0676c15781}, !- Default Day Schedule Name
  {1b5d6eb8-6b96-4347-ad20-db90ad2f4076}, !- Summer Design Day Schedule Name
  {5995e5ac-ad02-4768-a982-1c084cdb8531}; !- Winter Design Day Schedule Name

OS:ScheduleTypeLimits,
  {670c76ac-2145-48a0-8200-0e3d99e20d40}, !- Handle
  Lights Schedule Type Limits,            !- Name
  0,                                      !- Lower Limit Value {BasedOnField A4}
  1,                                      !- Upper Limit Value {BasedOnField A4}
  Continuous,                             !- Numeric Type
  Dimensionless;                          !- Unit Type

OS:Schedule:Day,
  {26e3bb1f-0042-4d17-86c2-4f0676c15781}, !- Handle
  0900|2000|AutoSales|default|lighting |default, !- Name
  {670c76ac-2145-48a0-8200-0e3d99e20d40}, !- Schedule Type Limits Name
  ,                                       !- Interpolate to Timestep
  6,                                      !- Hour 1
  0,                                      !- Minute 1
  0.05,                                   !- Value Until Time 1
  6,                                      !- Hour 2
  30,                                     !- Minute 2
  0.1,                                    !- Value Until Time 2
  7,                                      !- Hour 3
  0,                                      !- Minute 3
  0.15,                                   !- Value Until Time 3
  7,                                      !- Hour 4
  30,                                     !- Minute 4
  0.21,                                   !- Value Until Time 4
  8,                                      !- Hour 5
  0,                                      !- Minute 5
  0.26,                                   !- Value Until Time 5
  8,                                      !- Hour 6
  30,                                     !- Minute 6
  0.31,                                   !- Value Until Time 6
  9,                                      !- Hour 7
  0,                                      !- Minute 7
  0.36,                                   !- Value Until Time 7
  20,                                     !- Hour 8
  0,                                      !- Minute 8
  0.9,                                    !- Value Until Time 8
  20,                                     !- Hour 9
  30,                                     !- Minute 9
  0.79,                                   !- Value Until Time 9
  21,                                     !- Hour 10
  0,                                      !- Minute 10
  0.69,                                   !- Value Until Time 10
  21,                                     !- Hour 11
  30,                                     !- Minute 11
  0.58,                                   !- Value Until Time 11
  22,                                     !- Hour 12
  0,                                      !- Minute 12
  0.48,                                   !- Value Until Time 12
  22,                                     !- Hour 13
  30,                                     !- Minute 13
  0.37,                                   !- Value Until Time 13
  23,                                     !- Hour 14
  0,                                      !- Minute 14
  0.26,                                   !- Value Until Time 14
  23,                                     !- Hour 15
  30,                                     !- Minute 15
  0.16,                                   !- Value Until Time 15
  24,                                     !- Hour 16
  0,                                      !- Minute 16
  0.05;                                   !- Value Until Time 16

OS:Schedule:Day,
  {1b5d6eb8-6b96-4347-ad20-db90ad2f4076}, !- Handle
  0900|2000|AutoSales|default|lighting Summer Design Day, !- Name
  {670c76ac-2145-48a0-8200-0e3d99e20d40}, !- Schedule Type Limits Name
  ,                                       !- Interpolate to Timestep
  6,                                      !- Hour 1
  0,                                      !- Minute 1
  0.05,                                   !- Value Until Time 1
  6,                                      !- Hour 2
  30,                                     !- Minute 2
  0.1,                                    !- Value Until Time 2
  7,                                      !- Hour 3
  0,                                      !- Minute 3
  0.15,                                   !- Value Until Time 3
  7,                                      !- Hour 4
  30,                                     !- Minute 4
  0.21,                                   !- Value Until Time 4
  8,                                      !- Hour 5
  0,                                      !- Minute 5
  0.26,                                   !- Value Until Time 5
  22,                                     !- Hour 6
  30,                                     !- Minute 6
  1,                                      !- Value Until Time 6
  23,                                     !- Hour 7
  0,                                      !- Minute 7
  0.26,                                   !- Value Until Time 7
  23,                                     !- Hour 8
  30,                                     !- Minute 8
  0.16,                                   !- Value Until Time 8
  24,                                     !- Hour 9
  0,                                      !- Minute 9
  0.05;                                   !- Value Until Time 9

OS:Schedule:Day,
  {5995e5ac-ad02-4768-a982-1c084cdb8531}, !- Handle
  0900|2000|AutoSales|default|lighting Winter Design Day, !- Name
  {670c76ac-2145-48a0-8200-0e3d99e20d40}, !- Schedule Type Limits Name
  ,                                       !- Interpolate to Timestep
  24,                                     !- Hour 1
  0,                                      !- Minute 1
  0.05;                                   !- Value Until Time 1

OS:Schedule:Rule,
  {46518d63-7133-495d-ae00-b55833153b2e}, !- Handle
  0900|2000|AutoSales|default|lighting |1/1-12/31|Sun Rule, !- Name
  {c9265bd8-fff2-4735-a9cb-7900fb5ef267}, !- Schedule Ruleset Name
  0,                                      !- Rule Order
  {dbfeb959-8ff8-4d68-aa7f-a458c1ccc06f}, !- Day Schedule Name
  Yes,                                    !- Apply Sunday
  ,                                       !- Apply Monday
  ,                                       !- Apply Tuesday
  ,                                       !- Apply Wednesday
  ,                                       !- Apply Thursday
  ,                                       !- Apply Friday
  ,                                       !- Apply Saturday
  ,                                       !- Apply Holiday
  DateRange,                              !- Date Specification Type
  1,                                      !- Start Month
  1,                                      !- Start Day
  12,                                     !- End Month
  31;                                     !- End Day

OS:Schedule:Day,
  {dbfeb959-8ff8-4d68-aa7f-a458c1ccc06f}, !- Handle
  0900|2000|AutoSales|default|lighting |1/1-12/31|Sun, !- Name
  {670c76ac-2145-48a0-8200-0e3d99e20d40}, !- Schedule Type Limits Name
  ,                                       !- Interpolate to Timestep
  24,                                     !- Hour 1
  0,                                      !- Minute 1
  0.05;                                   !- Value Until Time 1

OS:Schedule:Rule,
  {835d0e53-3b01-4a40-9ba0-ae756aa451a0}, !- Handle
  0900|2000|AutoSales|default|lighting |1/1-12/31|Sat Rule, !- Name
  {c9265bd8-fff2-4735-a9cb-7900fb5ef267}, !- Schedule Ruleset Name
  1,                                      !- Rule Order
  {174841c7-b039-4aaf-a74a-e11b0020ccfa}, !- Day Schedule Name
  ,                                       !- Apply Sunday
  ,                                       !- Apply Monday
  ,                                       !- Apply Tuesday
  ,                                       !- Apply Wednesday
  ,                                       !- Apply Thursday
  ,                                       !- Apply Friday
  Yes,                                    !- Apply Saturday
  ,                                       !- Apply Holiday
  DateRange,                              !- Date Specification Type
  1,                                      !- Start Month
  1,                                      !- Start Day
  12,                                     !- End Month
  31;                                     !- End Day

OS:Schedule:Day,
  {174841c7-b039-4aaf-a74a-e11b0020ccfa}, !- Handle
  0900|2000|AutoSales|default|lighting |1/1-12/31|Sat, !- Name
  {670c76ac-2145-48a0-8200-0e3d99e20d40}, !- Schedule Type Limits Name
  ,                                       !- Interpolate to Timestep
  6,                                      !- Hour 1
  30,                                     !- Minute 1
  0.05,                                   !- Value Until Time 1
  7,                                      !- Hour 2
  30,                                     !- Minute 2
  0.06,                                   !- Value Until Time 2
  8,                                      !- Hour 3
  30,                                     !- Minute 3
  0.07,                                   !- Value Until Time 3
  9,                                      !- Hour 4
  0,                                      !- Minute 4
  0.08,                                   !- Value Until Time 4
  17,                                     !- Hour 5
  0,                                      !- Minute 5
  0.5,                                    !- Value Until Time 5
  17,                                     !- Hour 6
  30,                                     !- Minute 6
  0.44,                                   !- Value Until Time 6
  18,                                     !- Hour 7
  0,                                      !- Minute 7
  0.39,                                   !- Value Until Time 7
  18,                                     !- Hour 8
  30,                                     !- Minute 8
  0.33,                                   !- Value Until Time 8
  19,                                     !- Hour 9
  0,                                      !- Minute 9
  0.28,                                   !- Value Until Time 9
  19,                                     !- Hour 10
  30,                                     !- Minute 10
  0.22,                                   !- Value Until Time 10
  20,                                     !- Hour 11
  0,                                      !- Minute 11
  0.16,                                   !- Value Until Time 11
  20,                                     !- Hour 12
  30,                                     !- Minute 12
  0.11,                                   !- Value Until Time 12
  24,                                     !- Hour 13
  0,                                      !- Minute 13
  0.05;                                   !- Value Until Time 13

OS:Schedule:Ruleset,
  {290ce101-84ef-4548-aef9-b65e20bc420c}, !- Handle
  0900|2000|AutoSales|Garage|htg_setpoint, !- Name
  {9b76b9b3-da49-4d71-a16d-661835637046}, !- Schedule Type Limits Name
  {233254bf-fda0-407a-98d5-2b394c7d10b7}, !- Default Day Schedule Name
  {bb263099-a218-40bf-9af4-bcecabe74a93}, !- Summer Design Day Schedule Name
  {7efbb59a-5946-41cd-b6c4-09294f75cd81}; !- Winter Design Day Schedule Name

OS:ScheduleTypeLimits,
  {9b76b9b3-da49-4d71-a16d-661835637046}, !- Handle
  Thermostat Heating Setpoint Schedule Type Limits, !- Name
  0,                                      !- Lower Limit Value {BasedOnField A4}
  100,                                    !- Upper Limit Value {BasedOnField A4}
  Continuous,                             !- Numeric Type
  Temperature;                            !- Unit Type

OS:Schedule:Day,
  {233254bf-fda0-407a-98d5-2b394c7d10b7}, !- Handle
  0900|2000|AutoSales|Garage|htg_setpoint |default, !- Name
  {9b76b9b3-da49-4d71-a16d-661835637046}, !- Schedule Type Limits Name
  ,                                       !- Interpolate to Timestep
  24,                                     !- Hour 1
  0,                                      !- Minute 1
  10.0000000000001;                       !- Value Until Time 1

OS:Schedule:Day,
  {bb263099-a218-40bf-9af4-bcecabe74a93}, !- Handle
  0900|2000|AutoSales|Garage|htg_setpoint Summer Design Day, !- Name
  {9b76b9b3-da49-4d71-a16d-661835637046}, !- Schedule Type Limits Name
  ,                                       !- Interpolate to Timestep
  24,                                     !- Hour 1
  0,                                      !- Minute 1
  10.0000000000001;                       !- Value Until Time 1

OS:Schedule:Day,
  {7efbb59a-5946-41cd-b6c4-09294f75cd81}, !- Handle
  0900|2000|AutoSales|Garage|htg_setpoint Winter Design Day, !- Name
  {9b76b9b3-da49-4d71-a16d-661835637046}, !- Schedule Type Limits Name
  ,                                       !- Interpolate to Timestep
  24,                                     !- Hour 1
  0,                                      !- Minute 1
  10.0000000000001;                       !- Value Until Time 1

OS:Schedule:Rule,
  {4010adda-afd3-43b1-b7b6-65fa53da727e}, !- Handle
  0900|2000|AutoSales|Garage|htg_setpoint |1/1-12/31|Sun Rule, !- Name
  {290ce101-84ef-4548-aef9-b65e20bc420c}, !- Schedule Ruleset Name
  0,                                      !- Rule Order
  {dd373633-f84d-4950-8ede-f429a01d0a80}, !- Day Schedule Name
  Yes,                                    !- Apply Sunday
  ,                                       !- Apply Monday
  ,                                       !- Apply Tuesday
  ,                                       !- Apply Wednesday
  ,                                       !- Apply Thursday
  ,                                       !- Apply Friday
  ,                                       !- Apply Saturday
  ,                                       !- Apply Holiday
  DateRange,                              !- Date Specification Type
  1,                                      !- Start Month
  1,                                      !- Start Day
  12,                                     !- End Month
  31;                                     !- End Day

OS:Schedule:Day,
  {dd373633-f84d-4950-8ede-f429a01d0a80}, !- Handle
  0900|2000|AutoSales|Garage|htg_setpoint |1/1-12/31|Sun, !- Name
  {9b76b9b3-da49-4d71-a16d-661835637046}, !- Schedule Type Limits Name
  ,                                       !- Interpolate to Timestep
  24,                                     !- Hour 1
  0,                                      !- Minute 1
  10.0000000000001;                       !- Value Until Time 1

OS:Schedule:Rule,
  {b870645c-c54b-4487-99b5-b3ae34ef265a}, !- Handle
  0900|2000|AutoSales|Garage|htg_setpoint |1/1-12/31|Sat Rule, !- Name
  {290ce101-84ef-4548-aef9-b65e20bc420c}, !- Schedule Ruleset Name
  1,                                      !- Rule Order
  {4848163c-0656-4c7b-b88a-126239b2b219}, !- Day Schedule Name
  ,                                       !- Apply Sunday
  ,                                       !- Apply Monday
  ,                                       !- Apply Tuesday
  ,                                       !- Apply Wednesday
  ,                                       !- Apply Thursday
  ,                                       !- Apply Friday
  Yes,                                    !- Apply Saturday
  ,                                       !- Apply Holiday