
OS:Version,
  {2ec58ecb-c12c-4a86-b301-f66a67e2fd7f}, !- Handle
  1.5.5;                                  !- Version Identifier

OS:ClimateZones,
  {135edfab-17e7-40db-a436-27d385a8cd6d}, !- Handle
  ,                                       !- Active Institution
  ,                                       !- Active Year
  ASHRAE,                                 !- Climate Zone Institution Name 1
  ANSI/ASHRAE Standard 169,               !- Climate Zone Document Name 1
  2006,                                   !- Climate Zone Document Year 1
  ,                                       !- Climate Zone Value 1
  CEC,                                    !- Climate Zone Institution Name 2
  California Climate Zone Descriptions,   !- Climate Zone Document Name 2
  1995,                                   !- Climate Zone Document Year 2
  ;                                       !- Climate Zone Value 2

OS:YearDescription,
  {513d8dda-86cb-442a-b01c-1f7f0e0ac70e}; !- Handle

OS:RadianceParameters,
  {270a96f1-3c86-4b75-a667-cdf22790e2c8}, !- Handle
  1,                                      !- Accumulated Rays per Record
  0,                                      !- Direct Threshold
  1,                                      !- Direct Certainty
  1,                                      !- Direct Jitter
  1,                                      !- Direct Pretest
  6,                                      !- Ambient Bounces VMX
  2,                                      !- Ambient Bounces DMX
  4050,                                   !- Ambient Divisions VMX
  512,                                    !- Ambient Divisions DMX
  256,                                    !- Ambient Supersamples
  0.001,                                  !- Limit Weight VMX
  0.001,                                  !- Limit Weight DMX
  500,                                    !- Klems Sampling Density
  146;                                    !- Sky Discretization Resolution

OS:SimulationControl,
  {2c487a4c-bac9-4ac5-b669-1e49d9da7c2b}, !- Handle
  ,                                       !- Do Zone Sizing Calculation
  ,                                       !- Do System Sizing Calculation
  ,                                       !- Do Plant Sizing Calculation
  No,                                     !- Run Simulation for Sizing Periods
  ,                                       !- Run Simulation for Weather File Run Periods
  0.04,                                   !- Loads Convergence Tolerance Value
  ,                                       !- Temperature Convergence Tolerance Value {deltaC}
  ,                                       !- Solar Distribution
  ,                                       !- Maximum Number of Warmup Days
  2;                                      !- Minimum Number of Warmup Days

OS:Sizing:Parameters,
  {dde5af6f-7923-4600-a28a-7556673a0266}, !- Handle
  1.25,                                   !- Heating Sizing Factor
  1.15;                                   !- Cooling Sizing Factor

OS:ProgramControl,
  {05027a99-f2b3-4aeb-afc6-1425fbb4371d}; !- Handle

OS:Timestep,
  {4ebc9f1e-4707-402e-9844-67eb1ffbd522}, !- Handle
  2;                                      !- Number of Timesteps per Hour

OS:OutputControl:ReportingTolerances,
  {65797aa2-06a9-45fe-b69d-bc6e060399d3}; !- Handle

OS:ConvergenceLimits,
  {9fc11aba-8822-4f3d-970c-46391ba4040d}; !- Handle

OS:ShadowCalculation,
  {ca758bea-4416-4626-9bba-3d8795c79bd6}, !- Handle
  7,                                      !- Calculation Frequency
  15000;                                  !- Maximum Figures in Shadow Overlap Calculations

OS:SurfaceConvectionAlgorithm:Inside,
  {aaabfc36-718a-4ab0-b622-f186ebb45230}, !- Handle
  TARP;                                   !- Algorithm

OS:SurfaceConvectionAlgorithm:Outside,
  {9a0a9f6f-4bbd-4b12-a121-9492a1fcd7d6}, !- Handle
  DOE-2;                                  !- Algorithm

OS:HeatBalanceAlgorithm,
  {9d93e563-e1e0-46d7-9e39-d1c8aceb7212}, !- Handle
  ConductionTransferFunction,             !- Algorithm
  200;                                    !- Surface Temperature Upper Limit {F}

OS:ZoneAirHeatBalanceAlgorithm,
  {8520d93e-310f-4696-9bcd-36228bfdd743}, !- Handle
  AnalyticalSolution;                     !- Algorithm

OS:ZoneAirContaminantBalance,
  {eb5fc3ae-fb22-4160-8fcb-3e3b22b000d3}; !- Handle

OS:ZoneCapacitanceMultiplier:ResearchSpecial,
  {4020ce4f-5a7a-4849-8028-8305d7b751b1}, !- Handle
  ,                                       !- Temperature Capacity Multiplier
  ,                                       !- Humidity Capacity Multiplier
  ;                                       !- Carbon Dioxide Capacity Multiplier

OS:RunPeriod,
  {28df894d-6af9-4fb8-8f56-df1753344aa3}, !- Handle
  Run Period 1,                           !- Name
  1,                                      !- Begin Month
  1,                                      !- Begin Day of Month
  12,                                     !- End Month
  31,                                     !- End Day of Month
  ,                                       !- Use Weather File Holidays and Special Days
  ,                                       !- Use Weather File Daylight Saving Period
  ,                                       !- Apply Weekend Holiday Rule
  ,                                       !- Use Weather File Rain Indicators
  ,                                       !- Use Weather File Snow Indicators
  ;                                       !- Number of Times Runperiod to be Repeated

OS:Building,
  {bf305633-c5a1-4881-9edf-ca5e1a8e1274}, !- Handle
  Building 1,                             !- Name
  ,                                       !- Building Sector Type
  ,                                       !- North Axis {deg}
  ,                                       !- Nominal Floor to Floor Height {m}
  ,                                       !- Space Type Name
  ,                                       !- Default Construction Set Name
  {2c9a7ce2-dbf4-4b73-a243-8ea2575e418b}, !- Default Schedule Set Name
  ,                                       !- Standards Number of Stories
  ,                                       !- Standards Number of Above Ground Stories
  Bank;                                   !- Standards Building Type

OS:LifeCycleCost:Parameters,
  {231cf8a0-f0e7-4251-a99f-11f0d464e661}, !- Handle
  FEMP,                                   !- Analysis Type
  ,                                       !- Discounting Convention
  ,                                       !- Inflation Approach
  ,                                       !- Real Discount Rate
  ,                                       !- Nominal Discount Rate
  ,                                       !- Inflation
  ,                                       !- Base Date Month
  ,                                       !- Base Date Year
  ,                                       !- Service Date Month
  ,                                       !- Service Date Year
  ,                                       !- Length of Study Period in Years
  ,                                       !- Tax Rate
  ,                                       !- Depreciation Method
  Yes;                                    !- Use NIST Fuel Escalation Rates

OS:Facility,
  {3ba8e45b-b833-44eb-a723-ea6c3946dc96}; !- Handle

OS:SpaceType,
  {8b735084-fcaa-4efb-b126-86ba9ba3f842}, !- Handle
  Bank|BlendFront|DOE Ref 1980-2004|ASHRAE 169-2006-5A, !- Name
  {bb39cc7b-fcc5-4c40-bdce-445deb736905}, !- Default Construction Set Name
  ,                                       !- Default Schedule Set Name
  {c6352cf9-5e04-40f0-8296-25db8e5931a5}, !- Group Rendering Name
  {e60ad095-a19a-49d1-852b-b367060ce5bf}, !- Design Specification Outdoor Air Object Name
  Bank,                                   !- Standards Building Type
  BlendFront;                             !- Standards Space Type

OS:Rendering:Color,
  {c6352cf9-5e04-40f0-8296-25db8e5931a5}, !- Handle
  Rendering Color 1,                      !- Name
  230,                                    !- Rendering Red Value
  157,                                    !- Rendering Green Value
  120;                                    !- Rendering Blue Value

OS:SpaceType,
  {908421b4-a506-4735-8661-8d5b4162a28f}, !- Handle
  Bank|Elec/MechRoom|DOE Ref 1980-2004|ASHRAE 169-2006-5A, !- Name
  {bb39cc7b-fcc5-4c40-bdce-445deb736905}, !- Default Construction Set Name
  {f9bbce9f-c3fa-4c06-b1da-2b19de28bc80}, !- Default Schedule Set Name
  {3b05a165-f9aa-4b0d-a500-8d4e6b4d4f8f}, !- Group Rendering Name
  {5726a40a-5d6f-4355-bd3b-2d1ab4a05e3d}, !- Design Specification Outdoor Air Object Name
  Bank,                                   !- Standards Building Type
  Elec/MechRoom;                          !- Standards Space Type

OS:Rendering:Color,
  {3b05a165-f9aa-4b0d-a500-8d4e6b4d4f8f}, !- Handle
  Rendering Color 2,                      !- Name
  41,                                     !- Rendering Red Value
  31,                                     !- Rendering Green Value
  169;                                    !- Rendering Blue Value

OS:SpaceType,
  {b74a195a-ffaa-4144-9424-aabe499bc6a3}, !- Handle
  Bank|Restroom|DOE Ref 1980-2004|ASHRAE 169-2006-5A, !- Name
  {bb39cc7b-fcc5-4c40-bdce-445deb736905}, !- Default Construction Set Name
  {cc7914a3-4834-4929-b15b-78e0c6827883}, !- Default Schedule Set Name
  {fcb4ac4c-d10e-435a-a9a7-0154a23ff8c3}, !- Group Rendering Name
  {83657008-2550-4271-bfb6-69f6fafd2b86}, !- Design Specification Outdoor Air Object Name
  Bank,                                   !- Standards Building Type
  Restroom;                               !- Standards Space Type

OS:Rendering:Color,
  {fcb4ac4c-d10e-435a-a9a7-0154a23ff8c3}, !- Handle
  Rendering Color 3,                      !- Name
  169,                                    !- Rendering Red Value
  169,                                    !- Rendering Green Value
  31;                                     !- Rendering Blue Value

OS:SpaceType,
  {f82199e8-70f4-47f1-a344-09b781c83af8}, !- Handle
  Bank|Vault|DOE Ref 1980-2004|ASHRAE 169-2006-5A, !- Name
  {bb39cc7b-fcc5-4c40-bdce-445deb736905}, !- Default Construction Set Name
  {1258b495-7af1-4066-82b2-a309064062f7}, !- Default Schedule Set Name
  {b4dbbd7b-2d78-443c-a9ba-f5f026aa89a3}, !- Group Rendering Name
  {2b8cff4d-deda-41a0-9c41-bfac2df6067b}, !- Design Specification Outdoor Air Object Name
  Bank,                                   !- Standards Building Type
  Vault;                                  !- Standards Space Type

OS:Rendering:Color,
  {b4dbbd7b-2d78-443c-a9ba-f5f026aa89a3}, !- Handle
  Rendering Color 4,                      !- Name
  120,                                    !- Rendering Red Value
  120,                                    !- Rendering Green Value
  120;                                    !- Rendering Blue Value

OS:Schedule:Ruleset,
  {cb876932-d4fd-44ea-9268-b140c29bbcf2}, !- Handle
  0800|1700|Bank|default|hoo,             !- Name
  {1e855293-5172-4552-9fb0-d30f34d0329b}, !- Schedule Type Limits Name
  {247ac517-aba9-49c9-8da2-bb5292bc0d79}, !- Default Day Schedule Name
  {707d3d32-22b3-4c1b-beea-21e32ca7c58d}, !- Summer Design Day Schedule Name
  {7dad0f75-5709-47b4-abf4-8f6d3f46e9de}; !- Winter Design Day Schedule Name

OS:Schedule:Day,
  {247ac517-aba9-49c9-8da2-bb5292bc0d79}, !- Handle
  0800|1700|Bank|default|hoo Schedule Week Day, !- Name
  {1e855293-5172-4552-9fb0-d30f34d0329b}, !- Schedule Type Limits Name
  ,                                       !- Interpolate to Timestep
  8,                                      !- Hour 1
  0,                                      !- Minute 1
  0,                                      !- Value Until Time 1
  17,                                     !- Hour 2
  0,                                      !- Minute 2
  1,                                      !- Value Until Time 2
  24,                                     !- Hour 3
  0,                                      !- Minute 3
  0;                                      !- Value Until Time 3

OS:Schedule:Day,
  {42030375-c8fd-49a6-aa75-b053b11083ac}, !- Handle
  Schedule Day 2,                         !- Name
  ,                                       !- Schedule Type Limits Name
  ,                                       !- Interpolate to Timestep
  24,                                     !- Hour 1
  0,                                      !- Minute 1
  0;                                      !- Value Until Time 1

OS:Schedule:Day,
  {7dad0f75-5709-47b4-abf4-8f6d3f46e9de}, !- Handle
  0800|1700|Bank|default|hoo Winter Design Day, !- Name
  {1e855293-5172-4552-9fb0-d30f34d0329b}, !- Schedule Type Limits Name
  ,                                       !- Interpolate to Timestep
  24,                                     !- Hour 1
  0,                                      !- Minute 1
  0;                                      !- Value Until Time 1

OS:Schedule:Day,
  {0d53ea9e-ae01-45e7-8656-9e88529caa9d}, !- Handle
  Schedule Day 3,                         !- Name
  ,                                       !- Schedule Type Limits Name
  ,                                       !- Interpolate to Timestep
  24,                                     !- Hour 1
  0,                                      !- Minute 1
  0;                                      !- Value Until Time 1

OS:Schedule:Day,
  {707d3d32-22b3-4c1b-beea-21e32ca7c58d}, !- Handle
  0800|1700|Bank|default|hoo Summer Design Day, !- Name
  {1e855293-5172-4552-9fb0-d30f34d0329b}, !- Schedule Type Limits Name
  ,                                       !- Interpolate to Timestep
  24,                                     !- Hour 1
  0,                                      !- Minute 1
  1;                                      !- Value Until Time 1

OS:DefaultScheduleSet,
  {2c9a7ce2-dbf4-4b73-a243-8ea2575e418b}, !- Handle
  Building Hours of Operation,            !- Name
  {cb876932-d4fd-44ea-9268-b140c29bbcf2}, !- Hours of Operation Schedule Name
  ,                                       !- Number of People Schedule Name
  ,                                       !- People Activity Level Schedule Name
  ,                                       !- Lighting Schedule Name
  ,                                       !- Electric Equipment Schedule Name
  ,                                       !- Gas Equipment Schedule Name
  ,                                       !- Hot Water Equipment Schedule Name
  ,                                       !- Infiltration Schedule Name
  ,                                       !- Steam Equipment Schedule Name
  ;                                       !- Other Equipment Schedule Name

OS:ScheduleTypeLimits,
  {1e855293-5172-4552-9fb0-d30f34d0329b}, !- Handle
  OnOff,                                  !- Name
  0,                                      !- Lower Limit Value {BasedOnField A4}
  1,                                      !- Upper Limit Value {BasedOnField A4}
  Discrete,                               !- Numeric Type
  Availability;                           !- Unit Type

OS:Schedule:Ruleset,
  {379b72f5-bde7-4043-a2c1-13bd06569c11}, !- Handle
  0800|1700|Bank|default|elec_equip,      !- Name
  {2163feab-c063-424f-bfe2-34cafd4a7c55}, !- Schedule Type Limits Name
  {56478ae0-7850-45f5-9fc9-ccf922b9821f}, !- Default Day Schedule Name
  {90fcb782-21ed-4655-9ea8-dc3113862d21}, !- Summer Design Day Schedule Name
  {c3d1838c-9c53-4469-ae8b-9e93a88a7fc2}; !- Winter Design Day Schedule Name

OS:ScheduleTypeLimits,
  {2163feab-c063-424f-bfe2-34cafd4a7c55}, !- Handle
  Equipment Schedule Type Limits,         !- Name
  0,                                      !- Lower Limit Value {BasedOnField A4}
  1,                                      !- Upper Limit Value {BasedOnField A4}
  Continuous,                             !- Numeric Type
  Dimensionless;                          !- Unit Type

OS:Schedule:Day,
  {56478ae0-7850-45f5-9fc9-ccf922b9821f}, !- Handle
  0800|1700|Bank|default|elec_equip |default, !- Name
  {2163feab-c063-424f-bfe2-34cafd4a7c55}, !- Schedule Type Limits Name
  ,                                       !- Interpolate to Timestep
  8,                                      !- Hour 1
  0,                                      !- Minute 1
  0.4,                                    !- Value Until Time 1
  12,                                     !- Hour 2
  0,                                      !- Minute 2
  0.9,                                    !- Value Until Time 2
  13,                                     !- Hour 3
  0,                                      !- Minute 3
  0.8,                                    !- Value Until Time 3
  16,                                     !- Hour 4
  0,                                      !- Minute 4
  0.9,                                    !- Value Until Time 4
  16,                                     !- Hour 5
  30,                                     !- Minute 5
  0.8,                                    !- Value Until Time 5
  17,                                     !- Hour 6
  0,                                      !- Minute 6
  0.7,                                    !- Value Until Time 6
  17,                                     !- Hour 7
  30,                                     !- Minute 7
  0.6,                                    !- Value Until Time 7
  18,                                     !- Hour 8
  0,                                      !- Minute 8
  0.5,                                    !- Value Until Time 8
  18,                                     !- Hour 9
  30,                                     !- Minute 9
  0.49,                                   !- Value Until Time 9
  19,                                     !- Hour 10
  0,                                      !- Minute 10
  0.48,                                   !- Value Until Time 10
  19,                                     !- Hour 11
  30,                                     !- Minute 11
  0.47,                                   !- Value Until Time 11
  20,                                     !- Hour 12
  0,                                      !- Minute 12
  0.46,                                   !- Value Until Time 12
  20,                                     !- Hour 13
  30,                                     !- Minute 13
  0.45,                                   !- Value Until Time 13
  21,                                     !- Hour 14
  0,                                      !- Minute 14
  0.44,                                   !- Value Until Time 14
  21,                                     !- Hour 15
  30,                                     !- Minute 15
  0.43,                                   !- Value Until Time 15
  22,                                     !- Hour 16
  0,                                      !- Minute 16
  0.42,                                   !- Value Until Time 16
  22,                                     !- Hour 17
  30,                                     !- Minute 17
  0.41,                                   !- Value Until Time 17
  24,                                     !- Hour 18
  0,                                      !- Minute 18
  0.4;                                    !- Value Until Time 18

OS:Schedule:Day,
  {90fcb782-21ed-4655-9ea8-dc3113862d21}, !- Handle
  0800|1700|Bank|default|elec_equip Summer Design Day, !- Name
  {2163feab-c063-424f-bfe2-34cafd4a7c55}, !- Schedule Type Limits Name
  ,                                       !- Interpolate to Timestep
  24,                                     !- Hour 1
  0,                                      !- Minute 1
  1;                                      !- Value Until Time 1

OS:Schedule:Day,
  {c3d1838c-9c53-4469-ae8b-9e93a88a7fc2}, !- Handle
  0800|1700|Bank|default|elec_equip Winter Design Day, !- Name
  {2163feab-c063-424f-bfe2-34cafd4a7c55}, !- Schedule Type Limits Name
  ,                                       !- Interpolate to Timestep
  24,                                     !- Hour 1
  0,                                      !- Minute 1
  0.4;                                    !- Value Until Time 1

OS:Schedule:Rule,
  {12dc5054-d87b-4578-ac75-e8ea2e6744da}, !- Handle
  0800|1700|Bank|default|elec_equip |1/1-12/31|Sun Rule, !- Name
  {379b72f5-bde7-4043-a2c1-13bd06569c11}, !- Schedule Ruleset Name
  0,                                      !- Rule Order
  {22597dfb-8e0a-4780-98fd-baf78ae7fea4}, !- Day Schedule Name
  Yes,                                    !- Apply Sunday
  ,                                       !- Apply Monday
  ,                                       !- Apply Tuesday
  ,                                       !- Apply Wednesday
  ,                                       !- Apply Thursday
  ,                                       !- Apply Friday
  ,                                       !- Apply Saturday
  ,                                       !- Apply Holiday
  DateRange,                              !- Date Specification Type
  1,                                      !- Start Month
  1,                                      !- Start Day
  12,                                     !- End Month
  31;                                     !- End Day

OS:Schedule:Day,
  {22597dfb-8e0a-4780-98fd-baf78ae7fea4}, !- Handle
  0800|1700|Bank|default|elec_equip |1/1-12/31|Sun, !- Name
  {2163feab-c063-424f-bfe2-34cafd4a7c55}, !- Schedule Type Limits Name
  ,                                       !- Interpolate to Timestep
  24,                                     !- Hour 1
  0,                                      !- Minute 1
  0.3;                                    !- Value Until Time 1

OS:Schedule:Rule,
  {183a4bfe-4ec9-4280-bbb2-3a73e367d1c6}, !- Handle
  0800|1700|Bank|default|elec_equip |1/1-12/31|Sat Rule, !- Name
  {379b72f5-bde7-4043-a2c1-13bd06569c11}, !- Schedule Ruleset Name
  1,                                      !- Rule Order
  {0297eb0a-d808-4ec9-9f7b-a6ad4aaeac61}, !- Day Schedule Name
  ,                                       !- Apply Sunday
  ,                                       !- Apply Monday
  ,                                       !- Apply Tuesday
  ,                                       !- Apply Wednesday
  ,                                       !- Apply Thursday
  ,                                       !- Apply Friday
  Yes,                                    !- Apply Saturday
  ,                                       !- Apply Holiday
  DateRange,                              !- Date Specification Type
  1,                                      !- Start Month
  1,                                      !- Start Day
  12,                                     !- End Month
  31;                                     !- End Day

OS:Schedule:Day,
  {0297eb0a-d808-4ec9-9f7b-a6ad4aaeac61}, !- Handle
  0800|1700|Bank|default|elec_equip |1/1-12/31|Sat, !- Name
  {2163feab-c063-424f-bfe2-34cafd4a7c55}, !- Schedule Type Limits Name
  ,                                       !- Interpolate to Timestep
  5,                                      !- Hour 1
  0,                                      !- Minute 1
  0.3,                                    !- Value Until Time 1
  5,                                      !- Hour 2
  30,                                     !- Minute 2
  0.33,                                   !- Value Until Time 2
  6,                                      !- Hour 3
  0,                                      !- Minute 3
  0.37,                                   !- Value Until Time 3
  6,                                      !- Hour 4
  30,                                     !- Minute 4
  0.4,                                    !- Value Until Time 4
  7,                                      !- Hour 5
  0,                                      !- Minute 5
  0.43,                                   !- Value Until Time 5
  7,                                      !- Hour 6
  30,                                     !- Minute 6
  0.47,                                   !- Value Until Time 6
  13,                                     !- Hour 7
  0,                                      !- Minute 7
  0.5,                                    !- Value Until Time 7
  13,                                     !- Hour 8
  30,                                     !- Minute 8
  0.48,                                   !- Value Until Time 8
  14,                                     !- Hour 9
  0,                                      !- Minute 9
  0.46,                                   !- Value Until Time 9
  14,                                     !- Hour 10
  30,                                     !- Minute 10
  0.44,                                   !- Value Until Time 10
  15,                                     !- Hour 11
  0,                                      !- Minute 11
  0.42,                                   !- Value Until Time 11
  15,                                     !- Hour 12
  30,                                     !- Minute 12
  0.4,                                    !- Value Until Time 12
  16,                                     !- Hour 13
  0,                                      !- Minute 13
  0.38,                                   !- Value Until Time 13
  16,                                     !- Hour 14
  30,                                     !- Minute 14
  0.36,                                   !- Value Until Time 14
  17,                                     !- Hour 15
  0,                                      !- Minute 15
  0.34,                                   !- Value Until Time 15
  17,                                     !- Hour 16
  30,                                     !- Minute 16
  0.32,                                   !- Value Until Time 16
  24,                                     !- Hour 17
  0,                                      !- Minute 17
  0.3;                                    !- Value Until Time 17

OS:Schedule:Ruleset,
  {4d7a841f-5d66-4a1f-9c2f-57c7bb66b306}, !- Handle
  0800|1700|Bank|default|occ,             !- Name
  {9daa5bff-e6d8-4c12-98b7-bd2ff896eff5}, !- Schedule Type Limits Name
  {4cfb939f-bbd9-429a-8876-664fb7edc91e}, !- Default Day Schedule Name
  {e5a99925-0fd0-4e47-8e39-57f2cde95d79}, !- Summer Design Day Schedule Name
  {450ce90c-b95b-4be7-927e-002e8d896f3b}; !- Winter Design Day Schedule Name

OS:ScheduleTypeLimits,
  {9daa5bff-e6d8-4c12-98b7-bd2ff896eff5}, !- Handle
  Occupancy Schedule Type Limits,         !- Name
  0,                                      !- Lower Limit Value {BasedOnField A4}
  1,                                      !- Upper Limit Value {BasedOnField A4}
  Continuous,                             !- Numeric Type
  Dimensionless;                          !- Unit Type

OS:Schedule:Day,
  {4cfb939f-bbd9-429a-8876-664fb7edc91e}, !- Handle
  0800|1700|Bank|default|occ |default,    !- Name
  {9daa5bff-e6d8-4c12-98b7-bd2ff896eff5}, !- Schedule Type Limits Name
  ,                                       !- Interpolate to Timestep
  5,                                      !- Hour 1
  0,                                      !- Minute 1
  0,                                      !- Value Until Time 1
  5,                                      !- Hour 2
  30,                                     !- Minute 2
  0.07,                                   !- Value Until Time 2
  6,                                      !- Hour 3
  0,                                      !- Minute 3
  0.13,                                   !- Value Until Time 3
  6,                                      !- Hour 4
  30,                                     !- Minute 4
  0.2,                                    !- Value Until Time 4
  7,                                      !- Hour 5
  0,                                      !- Minute 5
  0.27,                                   !- Value Until Time 5
  7,                                      !- Hour 6
  30,                                     !- Minute 6
  0.33,                                   !- Value Until Time 6
  21,                                     !- Hour 7
  0,                                      !- Minute 7
  0.4,                                    !- Value Until Time 7
  21,                                     !- Hour 8
  30,                                     !- Minute 8
  0.2,                                    !- Value Until Time 8
  24,                                     !- Hour 9
  0,                                      !- Minute 9
  0;                                      !- Value Until Time 9

OS:Schedule:Day,
  {e5a99925-0fd0-4e47-8e39-57f2cde95d79}, !- Handle
  0800|1700|Bank|default|occ Summer Design Day, !- Name
  {9daa5bff-e6d8-4c12-98b7-bd2ff896eff5}, !- Schedule Type Limits Name
  ,                                       !- Interpolate to Timestep
  5,                                      !- Hour 1
  0,                                      !- Minute 1
  0,                                      !- Value Until Time 1
  5,                                      !- Hour 2
  30,                                     !- Minute 2
  0.07,                                   !- Value Until Time 2
  6,                                      !- Hour 3
  0,                                      !- Minute 3
  0.13,                                   !- Value Until Time 3
  6,                                      !- Hour 4
  30,                                     !- Minute 4
  0.2,                                    !- Value Until Time 4
  7,                                      !- Hour 5
  0,                                      !- Minute 5
  0.27,                                   !- Value Until Time 5
  21,                                     !- Hour 6
  0,                                      !- Minute 6
  1,                                      !- Value Until Time 6
  21,                                     !- Hour 7
  30,                                     !- Minute 7