
OS:Version,
  {44a367ea-4553-4d59-a145-b2e83731f095}, !- Handle
  1.5.5;                                  !- Version Identifier

OS:ClimateZones,
  {135edfab-17e7-40db-a436-27d385a8cd6d}, !- Handle
  ,                                       !- Active Institution
  ,                                       !- Active Year
  ASHRAE,                                 !- Climate Zone Institution Name 1
  ANSI/ASHRAE Standard 169,               !- Climate Zone Document Name 1
  2006,                                   !- Climate Zone Document Year 1
  ,                                       !- Climate Zone Value 1
  CEC,                                    !- Climate Zone Institution Name 2
  California Climate Zone Descriptions,   !- Climate Zone Document Name 2
  1995,                                   !- Climate Zone Document Year 2
  ;                                       !- Climate Zone Value 2

OS:YearDescription,
  {513d8dda-86cb-442a-b01c-1f7f0e0ac70e}; !- Handle

OS:RadianceParameters,
  {270a96f1-3c86-4b75-a667-cdf22790e2c8}, !- Handle
  1,                                      !- Accumulated Rays per Record
  0,                                      !- Direct Threshold
  1,                                      !- Direct Certainty
  1,                                      !- Direct Jitter
  1,                                      !- Direct Pretest
  6,                                      !- Ambient Bounces VMX
  2,                                      !- Ambient Bounces DMX
  4050,                                   !- Ambient Divisions VMX
  512,                                    !- Ambient Divisions DMX
  256,                                    !- Ambient Supersamples
  0.001,                                  !- Limit Weight VMX
  0.001,                                  !- Limit Weight DMX
  500,                                    !- Klems Sampling Density
  146;                                    !- Sky Discretization Resolution

OS:SimulationControl,
  {2c487a4c-bac9-4ac5-b669-1e49d9da7c2b}, !- Handle
  ,                                       !- Do Zone Sizing Calculation
  ,                                       !- Do System Sizing Calculation
  ,                                       !- Do Plant Sizing Calculation
  No,                                     !- Run Simulation for Sizing Periods
  ,                                       !- Run Simulation for Weather File Run Periods
  0.04,                                   !- Loads Convergence Tolerance Value
  ,                                       !- Temperature Convergence Tolerance Value {deltaC}
  ,                                       !- Solar Distribution
  ,                                       !- Maximum Number of Warmup Days
  2;                                      !- Minimum Number of Warmup Days

OS:Sizing:Parameters,
  {dde5af6f-7923-4600-a28a-7556673a0266}, !- Handle
  1.25,                                   !- Heating Sizing Factor
  1.15;                                   !- Cooling Sizing Factor

OS:ProgramControl,
  {05027a99-f2b3-4aeb-afc6-1425fbb4371d}; !- Handle

OS:Timestep,
  {4ebc9f1e-4707-402e-9844-67eb1ffbd522}, !- Handle
  2;                                      !- Number of Timesteps per Hour

OS:OutputControl:ReportingTolerances,
  {65797aa2-06a9-45fe-b69d-bc6e060399d3}; !- Handle

OS:ConvergenceLimits,
  {9fc11aba-8822-4f3d-970c-46391ba4040d}; !- Handle

OS:ShadowCalculation,
  {ca758bea-4416-4626-9bba-3d8795c79bd6}, !- Handle
  7,                                      !- Calculation Frequency
  15000;                                  !- Maximum Figures in Shadow Overlap Calculations

OS:SurfaceConvectionAlgorithm:Inside,
  {aaabfc36-718a-4ab0-b622-f186ebb45230}, !- Handle
  TARP;                                   !- Algorithm

OS:SurfaceConvectionAlgorithm:Outside,
  {9a0a9f6f-4bbd-4b12-a121-9492a1fcd7d6}, !- Handle
  DOE-2;                                  !- Algorithm

OS:HeatBalanceAlgorithm,
  {9d93e563-e1e0-46d7-9e39-d1c8aceb7212}, !- Handle
  ConductionTransferFunction,             !- Algorithm
  200;                                    !- Surface Temperature Upper Limit {F}

OS:ZoneAirHeatBalanceAlgorithm,
  {8520d93e-310f-4696-9bcd-36228bfdd743}, !- Handle
  AnalyticalSolution;                     !- Algorithm

OS:ZoneAirContaminantBalance,
  {eb5fc3ae-fb22-4160-8fcb-3e3b22b000d3}; !- Handle

OS:ZoneCapacitanceMultiplier:ResearchSpecial,
  {4020ce4f-5a7a-4849-8028-8305d7b751b1}, !- Handle
  ,                                       !- Temperature Capacity Multiplier
  ,                                       !- Humidity Capacity Multiplier
  ;                                       !- Carbon Dioxide Capacity Multiplier

OS:RunPeriod,
  {28df894d-6af9-4fb8-8f56-df1753344aa3}, !- Handle
  Run Period 1,                           !- Name
  1,                                      !- Begin Month
  1,                                      !- Begin Day of Month
  12,                                     !- End Month
  31,                                     !- End Day of Month
  ,                                       !- Use Weather File Holidays and Special Days
  ,                                       !- Use Weather File Daylight Saving Period
  ,                                       !- Apply Weekend Holiday Rule
  ,                                       !- Use Weather File Rain Indicators
  ,                                       !- Use Weather File Snow Indicators
  ;                                       !- Number of Times Runperiod to be Repeated

OS:Building,
  {bf305633-c5a1-4881-9edf-ca5e1a8e1274}, !- Handle
  Building 1,                             !- Name
  ,                                       !- Building Sector Type
  ,                                       !- North Axis {deg}
  ,                                       !- Nominal Floor to Floor Height {m}
  ,                                       !- Space Type Name
  ,                                       !- Default Construction Set Name
  {704e3487-0390-43ca-a10a-3f5277e60f80}, !- Default Schedule Set Name
  ,                                       !- Standards Number of Stories
  ,                                       !- Standards Number of Above Ground Stories
  ChildCare;                              !- Standards Building Type

OS:LifeCycleCost:Parameters,
  {231cf8a0-f0e7-4251-a99f-11f0d464e661}, !- Handle
  FEMP,                                   !- Analysis Type
  ,                                       !- Discounting Convention
  ,                                       !- Inflation Approach
  ,                                       !- Real Discount Rate
  ,                                       !- Nominal Discount Rate
  ,                                       !- Inflation
  ,                                       !- Base Date Month
  ,                                       !- Base Date Year
  ,                                       !- Service Date Month
  ,                                       !- Service Date Year
  ,                                       !- Length of Study Period in Years
  ,                                       !- Tax Rate
  ,                                       !- Depreciation Method
  Yes;                                    !- Use NIST Fuel Escalation Rates

OS:Facility,
  {3ba8e45b-b833-44eb-a723-ea6c3946dc96}; !- Handle

OS:SpaceType,
  {c96a0555-24fa-4136-9721-aa94f5910f0f}, !- Handle
  ChildCare|BlendEdu|DOE Ref Pre-1980|ASHRAE 169-2006-5A, !- Name
  {77f8e8e6-d834-4dc5-a34e-492558c05f48}, !- Default Construction Set Name
  ,                                       !- Default Schedule Set Name
  {881cae34-6284-45c2-8bc6-5bd488ff6f3d}, !- Group Rendering Name
  {ce4c4861-a943-46e9-94f6-ca7e7f99c1b1}, !- Design Specification Outdoor Air Object Name
  ChildCare,                              !- Standards Building Type
  BlendEdu;                               !- Standards Space Type

OS:Rendering:Color,
  {881cae34-6284-45c2-8bc6-5bd488ff6f3d}, !- Handle
  Rendering Color 1,                      !- Name
  120,                                    !- Rendering Red Value
  230,                                    !- Rendering Green Value
  199;                                    !- Rendering Blue Value

OS:SpaceType,
  {9e5abacf-25fb-4019-9470-95f558fe2948}, !- Handle
  ChildCare|Office|DOE Ref Pre-1980|ASHRAE 169-2006-5A, !- Name
  {77f8e8e6-d834-4dc5-a34e-492558c05f48}, !- Default Construction Set Name
  {c9a7c221-418a-4d97-8917-175043c629f7}, !- Default Schedule Set Name
  {76ef10d6-9b71-48d6-84eb-7dec694a0bc4}, !- Group Rendering Name
  {65a2596b-c027-4d8d-b130-b6f4962c7af4}, !- Design Specification Outdoor Air Object Name
  ChildCare,                              !- Standards Building Type
  Office;                                 !- Standards Space Type

OS:Rendering:Color,
  {76ef10d6-9b71-48d6-84eb-7dec694a0bc4}, !- Handle
  Rendering Color 2,                      !- Name
  120,                                    !- Rendering Red Value
  230,                                    !- Rendering Green Value
  199;                                    !- Rendering Blue Value

OS:SpaceType,
  {eb90e802-809a-4985-9231-40d252350f6e}, !- Handle
  ChildCare|Restroom|DOE Ref Pre-1980|ASHRAE 169-2006-5A, !- Name
  {77f8e8e6-d834-4dc5-a34e-492558c05f48}, !- Default Construction Set Name
  {fa655f27-a79a-4645-a28b-a726e135c085}, !- Default Schedule Set Name
  {1639d26b-9526-47ba-9099-3e1e03956a85}, !- Group Rendering Name
  {145e4568-1ac0-4020-b7f6-8b6d7ebbd050}, !- Design Specification Outdoor Air Object Name
  ChildCare,                              !- Standards Building Type
  Restroom;                               !- Standards Space Type

OS:Rendering:Color,
  {1639d26b-9526-47ba-9099-3e1e03956a85}, !- Handle
  Rendering Color 3,                      !- Name
  169,                                    !- Rendering Red Value
  169,                                    !- Rendering Green Value
  31;                                     !- Rendering Blue Value

OS:Schedule:Ruleset,
  {920bcaac-8da0-415d-a3d1-ad192d0a9940}, !- Handle
  0600|1900|ChildCare|default|hoo,        !- Name
  {a4e45af5-172d-422a-8d72-28c1c330142e}, !- Schedule Type Limits Name
  {9e14170e-1994-4a89-9fb3-68d73e3efd9a}, !- Default Day Schedule Name
  {5415a9b7-39b6-4321-bef3-ba6074c957e7}, !- Summer Design Day Schedule Name
  {a337b4bb-876f-4efa-8de4-f5a0a4ab8ec4}; !- Winter Design Day Schedule Name

OS:Schedule:Day,
  {9e14170e-1994-4a89-9fb3-68d73e3efd9a}, !- Handle
  0600|1900|ChildCare|default|hoo Schedule Week Day, !- Name
  {a4e45af5-172d-422a-8d72-28c1c330142e}, !- Schedule Type Limits Name
  ,                                       !- Interpolate to Timestep
  6,                                      !- Hour 1
  0,                                      !- Minute 1
  0,                                      !- Value Until Time 1
  19,                                     !- Hour 2
  0,                                      !- Minute 2
  1,                                      !- Value Until Time 2
  24,                                     !- Hour 3
  0,                                      !- Minute 3
  0;                                      !- Value Until Time 3

OS:Schedule:Day,
  {65adee02-7667-4bac-a45f-9be67dc5c7b0}, !- Handle
  Schedule Day 2,                         !- Name
  ,                                       !- Schedule Type Limits Name
  ,                                       !- Interpolate to Timestep
  24,                                     !- Hour 1
  0,                                      !- Minute 1
  0;                                      !- Value Until Time 1

OS:Schedule:Day,
  {a337b4bb-876f-4efa-8de4-f5a0a4ab8ec4}, !- Handle
  0600|1900|ChildCare|default|hoo Winter Design Day, !- Name
  {a4e45af5-172d-422a-8d72-28c1c330142e}, !- Schedule Type Limits Name
  ,                                       !- Interpolate to Timestep
  24,                                     !- Hour 1
  0,                                      !- Minute 1
  0;                                      !- Value Until Time 1

OS:Schedule:Day,
  {e0f11945-df2e-455d-b986-eb83f340dd52}, !- Handle
  Schedule Day 3,                         !- Name
  ,                                       !- Schedule Type Limits Name
  ,                                       !- Interpolate to Timestep
  24,                                     !- Hour 1
  0,                                      !- Minute 1
  0;                                      !- Value Until Time 1

OS:Schedule:Day,
  {5415a9b7-39b6-4321-bef3-ba6074c957e7}, !- Handle
  0600|1900|ChildCare|default|hoo Summer Design Day, !- Name
  {a4e45af5-172d-422a-8d72-28c1c330142e}, !- Schedule Type Limits Name
  ,                                       !- Interpolate to Timestep
  24,                                     !- Hour 1
  0,                                      !- Minute 1
  1;                                      !- Value Until Time 1

OS:DefaultScheduleSet,
  {704e3487-0390-43ca-a10a-3f5277e60f80}, !- Handle
  Building Hours of Operation,            !- Name
  {920bcaac-8da0-415d-a3d1-ad192d0a9940}, !- Hours of Operation Schedule Name
  ,                                       !- Number of People Schedule Name
  ,                                       !- People Activity Level Schedule Name
  ,                                       !- Lighting Schedule Name
  ,                                       !- Electric Equipment Schedule Name
  ,                                       !- Gas Equipment Schedule Name
  ,                                       !- Hot Water Equipment Schedule Name
  ,                                       !- Infiltration Schedule Name
  ,                                       !- Steam Equipment Schedule Name
  ;                                       !- Other Equipment Schedule Name

OS:ScheduleTypeLimits,
  {a4e45af5-172d-422a-8d72-28c1c330142e}, !- Handle
  OnOff,                                  !- Name
  0,                                      !- Lower Limit Value {BasedOnField A4}
  1,                                      !- Upper Limit Value {BasedOnField A4}
  Discrete,                               !- Numeric Type
  Availability;                           !- Unit Type

OS:Schedule:Ruleset,
  {e54b70b7-d2c3-4551-b007-cc65cd8d209d}, !- Handle
  0600|1900|ChildCare|default|infiltration, !- Name
  {54c773eb-5f09-4fd7-ae2a-6fce7ceaa45f}, !- Schedule Type Limits Name
  {021eadb2-6564-44e7-b70e-76af6413e0cf}, !- Default Day Schedule Name
  {18f01032-1d0e-4427-9f75-c4412e827973}, !- Summer Design Day Schedule Name
  {fd126c38-702d-41cc-a77e-eaae879b1d22}; !- Winter Design Day Schedule Name

OS:ScheduleTypeLimits,
  {54c773eb-5f09-4fd7-ae2a-6fce7ceaa45f}, !- Handle
  Fraction Schedule Type Limits,          !- Name
  0,                                      !- Lower Limit Value {BasedOnField A4}
  1,                                      !- Upper Limit Value {BasedOnField A4}
  Continuous,                             !- Numeric Type
  Dimensionless;                          !- Unit Type

OS:Schedule:Day,
  {021eadb2-6564-44e7-b70e-76af6413e0cf}, !- Handle
  0600|1900|ChildCare|default|infiltration |default, !- Name
  {54c773eb-5f09-4fd7-ae2a-6fce7ceaa45f}, !- Schedule Type Limits Name
  ,                                       !- Interpolate to Timestep
  5,                                      !- Hour 1
  0,                                      !- Minute 1
  1,                                      !- Value Until Time 1
  22,                                     !- Hour 2
  0,                                      !- Minute 2
  0.5,                                    !- Value Until Time 2
  24,                                     !- Hour 3
  0,                                      !- Minute 3
  1;                                      !- Value Until Time 3

OS:Schedule:Day,
  {18f01032-1d0e-4427-9f75-c4412e827973}, !- Handle
  0600|1900|ChildCare|default|infiltration Summer Design Day, !- Name
  {54c773eb-5f09-4fd7-ae2a-6fce7ceaa45f}, !- Schedule Type Limits Name
  ,                                       !- Interpolate to Timestep
  5,                                      !- Hour 1
  0,                                      !- Minute 1
  1,                                      !- Value Until Time 1
  22,                                     !- Hour 2
  0,                                      !- Minute 2
  0.5,                                    !- Value Until Time 2
  24,                                     !- Hour 3
  0,                                      !- Minute 3
  1;                                      !- Value Until Time 3

OS:Schedule:Day,
  {fd126c38-702d-41cc-a77e-eaae879b1d22}, !- Handle
  0600|1900|ChildCare|default|infiltration Winter Design Day, !- Name
  {54c773eb-5f09-4fd7-ae2a-6fce7ceaa45f}, !- Schedule Type Limits Name
  ,                                       !- Interpolate to Timestep
  5,                                      !- Hour 1
  0,                                      !- Minute 1
  1,                                      !- Value Until Time 1
  22,                                     !- Hour 2
  0,                                      !- Minute 2
  0.5,                                    !- Value Until Time 2
  24,                                     !- Hour 3
  0,                                      !- Minute 3
  1;                                      !- Value Until Time 3

OS:Schedule:Ruleset,
  {f4e871fa-88bc-45da-b303-22ce6f309696}, !- Handle
  0600|1900|ChildCare|default|thermal_ctrl, !- Name
  {74bcf46a-a1dd-4fbe-8710-17aa51249a70}, !- Schedule Type Limits Name
  {eb8d3309-f06f-482d-83c2-8c70769c2378}, !- Default Day Schedule Name
  {e4795c29-d7a1-4691-b509-02e67af4ca98}, !- Summer Design Day Schedule Name
  {24da677c-e9be-4042-9031-a3656c35acf9}; !- Winter Design Day Schedule Name

OS:ScheduleTypeLimits,
  {74bcf46a-a1dd-4fbe-8710-17aa51249a70}, !- Handle
  Dimensionless Schedule Type Limits,     !- Name
  ,                                       !- Lower Limit Value {BasedOnField A4}
  ,                                       !- Upper Limit Value {BasedOnField A4}
  Continuous,                             !- Numeric Type
  Dimensionless;                          !- Unit Type

OS:Schedule:Day,
  {eb8d3309-f06f-482d-83c2-8c70769c2378}, !- Handle
  0600|1900|ChildCare|default|thermal_ctrl |default, !- Name
  {74bcf46a-a1dd-4fbe-8710-17aa51249a70}, !- Schedule Type Limits Name
  ,                                       !- Interpolate to Timestep
  24,                                     !- Hour 1
  0,                                      !- Minute 1
  4;                                      !- Value Until Time 1

OS:Schedule:Day,
  {e4795c29-d7a1-4691-b509-02e67af4ca98}, !- Handle
  0600|1900|ChildCare|default|thermal_ctrl Summer Design Day, !- Name
  {74bcf46a-a1dd-4fbe-8710-17aa51249a70}, !- Schedule Type Limits Name
  ,                                       !- Interpolate to Timestep
  24,                                     !- Hour 1
  0,                                      !- Minute 1
  4;                                      !- Value Until Time 1

OS:Schedule:Day,
  {24da677c-e9be-4042-9031-a3656c35acf9}, !- Handle
  0600|1900|ChildCare|default|thermal_ctrl Winter Design Day, !- Name
  {74bcf46a-a1dd-4fbe-8710-17aa51249a70}, !- Schedule Type Limits Name
  ,                                       !- Interpolate to Timestep
  24,                                     !- Hour 1
  0,                                      !- Minute 1
  4;                                      !- Value Until Time 1

OS:Schedule:Ruleset,
  {9b10926f-4b8d-40be-baf7-23a397748710}, !- Handle
  0600|1900|ChildCare|default|swh_target_temp, !- Name
  {63924b92-19d7-435d-96d1-58850e3b73ea}, !- Schedule Type Limits Name
  {1be4ad1c-d360-4fe2-9575-b0aa9a5d8a7f}, !- Default Day Schedule Name
  {7b0ba506-0d9f-4e0a-9a9a-c9799aee7854}, !- Summer Design Day Schedule Name
  {d16d7107-a17f-4b5f-8206-2f155b8072ae}; !- Winter Design Day Schedule Name

OS:ScheduleTypeLimits,
  {63924b92-19d7-435d-96d1-58850e3b73ea}, !- Handle
  Temperature Schedule Type Limits,       !- Name
  ,                                       !- Lower Limit Value {BasedOnField A4}
  ,                                       !- Upper Limit Value {BasedOnField A4}
  Continuous,                             !- Numeric Type
  Temperature;                            !- Unit Type

OS:Schedule:Day,
  {1be4ad1c-d360-4fe2-9575-b0aa9a5d8a7f}, !- Handle
  0600|1900|ChildCare|default|swh_target_temp |default, !- Name
  {63924b92-19d7-435d-96d1-58850e3b73ea}, !- Schedule Type Limits Name
  ,                                       !- Interpolate to Timestep
  24,                                     !- Hour 1
  0,                                      !- Minute 1
  60.0000000000001;                       !- Value Until Time 1

OS:Schedule:Day,
  {7b0ba506-0d9f-4e0a-9a9a-c9799aee7854}, !- Handle
  0600|1900|ChildCare|default|swh_target_temp Summer Design Day, !- Name
  {63924b92-19d7-435d-96d1-58850e3b73ea}, !- Schedule Type Limits Name
  ,                                       !- Interpolate to Timestep
  24,                                     !- Hour 1
  0,                                      !- Minute 1
  60.0000000000001;                       !- Value Until Time 1

OS:Schedule:Day,
  {d16d7107-a17f-4b5f-8206-2f155b8072ae}, !- Handle
  0600|1900|ChildCare|default|swh_target_temp Winter Design Day, !- Name
  {63924b92-19d7-435d-96d1-58850e3b73ea}, !- Schedule Type Limits Name
  ,                                       !- Interpolate to Timestep
  24,                                     !- Hour 1
  0,                                      !- Minute 1
  60.0000000000001;                       !- Value Until Time 1

OS:Schedule:Ruleset,
  {6c86ceb5-e3d1-4828-be38-ccd67de3ef02}, !- Handle
  0600|1900|ChildCare|default|activity,   !- Name
  {e298162f-58b5-4697-b15f-3ccc5cfa367e}, !- Schedule Type Limits Name
  {f242b294-5035-4e54-a0fc-dfd8c303fb1b}, !- Default Day Schedule Name
  {cf6f3976-a720-4dd4-aadc-98fa16e4d5d6}, !- Summer Design Day Schedule Name
  {ea90e57c-31f2-4119-a691-ff83b4da902a}; !- Winter Design Day Schedule Name

OS:ScheduleTypeLimits,
  {e298162f-58b5-4697-b15f-3ccc5cfa367e}, !- Handle
  People Activity Type Limits,            !- Name
  0,                                      !- Lower Limit Value {BasedOnField A4}
  ,                                       !- Upper Limit Value {BasedOnField A4}
  Continuous,                             !- Numeric Type
  ActivityLevel;                          !- Unit Type

OS:Schedule:Day,
  {f242b294-5035-4e54-a0fc-dfd8c303fb1b}, !- Handle
  0600|1900|ChildCare|default|activity |default, !- Name
  {e298162f-58b5-4697-b15f-3ccc5cfa367e}, !- Schedule Type Limits Name
  ,                                       !- Interpolate to Timestep
  24,                                     !- Hour 1
  0,                                      !- Minute 1
  120;                                    !- Value Until Time 1

OS:Schedule:Day,
  {cf6f3976-a720-4dd4-aadc-98fa16e4d5d6}, !- Handle
  0600|1900|ChildCare|default|activity Summer Design Day, !- Name
  {e298162f-58b5-4697-b15f-3ccc5cfa367e}, !- Schedule Type Limits Name
  ,                                       !- Interpolate to Timestep
  24,                                     !- Hour 1
  0,                                      !- Minute 1
  120;                                    !- Value Until Time 1

OS:Schedule:Day,
  {ea90e57c-31f2-4119-a691-ff83b4da902a}, !- Handle
  0600|1900|ChildCare|default|activity Winter Design Day, !- Name
  {e298162f-58b5-4697-b15f-3ccc5cfa367e}, !- Schedule Type Limits Name
  ,                                       !- Interpolate to Timestep
  24,                                     !- Hour 1
  0,                                      !- Minute 1
  120;                                    !- Value Until Time 1

OS:Schedule:Ruleset,
  {2f7e68c3-0349-4c36-85e1-1f68ba5946fa}, !- Handle
  0600|1900|ChildCare|default|work_eff,   !- Name
  {54c773eb-5f09-4fd7-ae2a-6fce7ceaa45f}, !- Schedule Type Limits Name
  {2a70fc2e-dbf2-4c41-89b0-57967d4ae862}, !- Default Day Schedule Name
  {b09283a1-e067-4874-9d9b-e62213ad9ed8}, !- Summer Design Day Schedule Name
  {2541464d-946a-4282-a5f8-d62413639dac}; !- Winter Design Day Schedule Name

OS:Schedule:Day,
  {2a70fc2e-dbf2-4c41-89b0-57967d4ae862}, !- Handle
  0600|1900|ChildCare|default|work_eff |default, !- Name
  {54c773eb-5f09-4fd7-ae2a-6fce7ceaa45f}, !- Schedule Type Limits Name
  ,                                       !- Interpolate to Timestep
  24,                                     !- Hour 1
  0,                                      !- Minute 1
  0;                                      !- Value Until Time 1

OS:Schedule:Day,
  {b09283a1-e067-4874-9d9b-e62213ad9ed8}, !- Handle
  0600|1900|ChildCare|default|work_eff Summer Design Day, !- Name
  {54c773eb-5f09-4fd7-ae2a-6fce7ceaa45f}, !- Schedule Type Limits Name
  ,                                       !- Interpolate to Timestep
  24,                                     !- Hour 1
  0,                                      !- Minute 1
  0;                                      !- Value Until Time 1

OS:Schedule:Day,
  {2541464d-946a-4282-a5f8-d62413639dac}, !- Handle
  0600|1900|ChildCare|default|work_eff Winter Design Day, !- Name
  {54c773eb-5f09-4fd7-ae2a-6fce7ceaa45f}, !- Schedule Type Limits Name
  ,                                       !- Interpolate to Timestep
  24,                                     !- Hour 1
  0,                                      !- Minute 1
  0;                                      !- Value Until Time 1

OS:Schedule:Ruleset,
  {75acfcd6-9253-4b6f-893f-49468b80fc1e}, !- Handle
  0600|1900|ChildCare|default|swh,        !- Name
  {25c351c9-3f44-4c15-8f0d-ee92be554e68}, !- Schedule Type Limits Name
  {63c6b31a-a2a7-4c54-876f-0bebb6f75dc1}, !- Default Day Schedule Name
  {d77b2dc4-504b-4baf-810a-9700de66fed1}, !- Summer Design Day Schedule Name
  {cfe07676-cfd2-4d7a-9bd8-333be1c93650}; !- Winter Design Day Schedule Name

OS:ScheduleTypeLimits,
  {25c351c9-3f44-4c15-8f0d-ee92be554e68}, !- Handle
  Water Use Schedule Type Limits,         !- Name
  0,                                      !- Lower Limit Value {BasedOnField A4}
  1,                                      !- Upper Limit Value {BasedOnField A4}
  Continuous,                             !- Numeric Type
  Dimensionless;                          !- Unit Type

OS:Schedule:Day,
  {63c6b31a-a2a7-4c54-876f-0bebb6f75dc1}, !- Handle
  0600|1900|ChildCare|default|swh |default, !- Name
  {25c351c9-3f44-4c15-8f0d-ee92be554e68}, !- Schedule Type Limits Name
  ,                                       !- Interpolate to Timestep
  24,                                     !- Hour 1
  0,                                      !- Minute 1
  0;                                      !- Value Until Time 1

OS:Schedule:Day,
  {d77b2dc4-504b-4baf-810a-9700de66fed1}, !- Handle
  0600|1900|ChildCare|default|swh Summer Design Day, !- Name
  {25c351c9-3f44-4c15-8f0d-ee92be554e68}, !- Schedule Type Limits Name
  ,                                       !- Interpolate to Timestep
  24,                                     !- Hour 1
  0,                                      !- Minute 1
  0;                                      !- Value Until Time 1

OS:Schedule:Day,
  {cfe07676-cfd2-4d7a-9bd8-333be1c93650}, !- Handle
  0600|1900|ChildCare|default|swh Winter Design Day, !- Name
  {25c351c9-3f44-4c15-8f0d-ee92be554e68}, !- Schedule Type Limits Name
  ,                                       !- Interpolate to Timestep
  24,                                     !- Hour 1
  0,                                      !- Minute 1
  0;                                      !- Value Until Time 1

OS:Schedule:Rule,
  {d351ac2a-4a69-494f-83bf-24e4edc569bc}, !- Handle
  0600|1900|ChildCare|default|swh |1/1-12/31|Sat/Sun Rule, !- Name
  {75acfcd6-9253-4b6f-893f-49468b80fc1e}, !- Schedule Ruleset Name
  0,                                      !- Rule Order
  {580fa858-120a-4d07-aa71-27b4b9c7911d}, !- Day Schedule Name
  Yes,                                    !- Apply Sunday
  ,                                       !- Apply Monday
  ,                                       !- Apply Tuesday
  ,                                       !- Apply Wednesday
  ,                                       !- Apply Thursday
  ,                                       !- Apply Friday
  Yes,                                    !- Apply Saturday
  ,                                       !- Apply Holiday
  DateRange,                              !- Date Specification Type
  1,                                      !- Start Month
  1,                                      !- Start Day
  12,                                     !- End Month
  31;                                     !- End Day

OS:Schedule:Day,
  {580fa858-120a-4d07-aa71-27b4b9c7911d}, !- Handle
  0600|1900|ChildCare|default|swh |1/1-12/31|Sat/Sun, !- Name
  {25c351c9-3f44-4c15-8f0d-ee92be554e68}, !- Schedule Type Limits Name
  ,                                       !- Interpolate to Timestep
  24,                                     !- Hour 1
  0,                                      !- Minute 1
  0;                                      !- Value Until Time 1

OS:Schedule:Ruleset,
  {d158792a-79a7-4d5a-a343-750b9e977b86}, !- Handle
  0600|1900|ChildCare|default|ext_lighting, !- Name
  {c247f6ec-c3cb-4726-9ad5-cb2de15efc3f}, !- Schedule Type Limits Name
  {8f414aa1-acaf-4f31-b740-5e7474e41146}, !- Default Day Schedule Name
  {96be3648-7297-404f-99a4-c123fa61f2d5}, !- Summer Design Day Schedule Name
  {164abd8e-69df-4540-bf49-f837126e8807}; !- Winter Design Day Schedule Name

OS:ScheduleTypeLimits,
  {c247f6ec-c3cb-4726-9ad5-cb2de15efc3f}, !- Handle
  Lights Schedule Type Limits,            !- Name
  0,                                      !- Lower Limit Value {BasedOnField A4}