
OS:Version,
  {f3d4d226-0423-4774-80bb-1f9cb879c094}, !- Handle
  1.5.5;                                  !- Version Identifier

OS:ClimateZones,
  {135edfab-17e7-40db-a436-27d385a8cd6d}, !- Handle
  ,                                       !- Active Institution
  ,                                       !- Active Year
  ASHRAE,                                 !- Climate Zone Institution Name 1
  ANSI/ASHRAE Standard 169,               !- Climate Zone Document Name 1
  2006,                                   !- Climate Zone Document Year 1
  ,                                       !- Climate Zone Value 1
  CEC,                                    !- Climate Zone Institution Name 2
  California Climate Zone Descriptions,   !- Climate Zone Document Name 2
  1995,                                   !- Climate Zone Document Year 2
  ;                                       !- Climate Zone Value 2

OS:YearDescription,
  {513d8dda-86cb-442a-b01c-1f7f0e0ac70e}; !- Handle

OS:RadianceParameters,
  {270a96f1-3c86-4b75-a667-cdf22790e2c8}, !- Handle
  1,                                      !- Accumulated Rays per Record
  0,                                      !- Direct Threshold
  1,                                      !- Direct Certainty
  1,                                      !- Direct Jitter
  1,                                      !- Direct Pretest
  6,                                      !- Ambient Bounces VMX
  2,                                      !- Ambient Bounces DMX
  4050,                                   !- Ambient Divisions VMX
  512,                                    !- Ambient Divisions DMX
  256,                                    !- Ambient Supersamples
  0.001,                                  !- Limit Weight VMX
  0.001,                                  !- Limit Weight DMX
  500,                                    !- Klems Sampling Density
  146;                                    !- Sky Discretization Resolution

OS:SimulationControl,
  {2c487a4c-bac9-4ac5-b669-1e49d9da7c2b}, !- Handle
  ,                                       !- Do Zone Sizing Calculation
  ,                                       !- Do System Sizing Calculation
  ,                                       !- Do Plant Sizing Calculation
  No,                                     !- Run Simulation for Sizing Periods
  ,                                       !- Run Simulation for Weather File Run Periods
  0.04,                                   !- Loads Convergence Tolerance Value
  ,                                       !- Temperature Convergence Tolerance Value {deltaC}
  ,                                       !- Solar Distribution
  ,                                       !- Maximum Number of Warmup Days
  2;                                      !- Minimum Number of Warmup Days

OS:Sizing:Parameters,
  {dde5af6f-7923-4600-a28a-7556673a0266}, !- Handle
  1.25,                                   !- Heating Sizing Factor
  1.15;                                   !- Cooling Sizing Factor

OS:ProgramControl,
  {05027a99-f2b3-4aeb-afc6-1425fbb4371d}; !- Handle

OS:Timestep,
  {4ebc9f1e-4707-402e-9844-67eb1ffbd522}, !- Handle
  2;                                      !- Number of Timesteps per Hour

OS:OutputControl:ReportingTolerances,
  {65797aa2-06a9-45fe-b69d-bc6e060399d3}; !- Handle

OS:ConvergenceLimits,
  {9fc11aba-8822-4f3d-970c-46391ba4040d}; !- Handle

OS:ShadowCalculation,
  {ca758bea-4416-4626-9bba-3d8795c79bd6}, !- Handle
  7,                                      !- Calculation Frequency
  15000;                                  !- Maximum Figures in Shadow Overlap Calculations

OS:SurfaceConvectionAlgorithm:Inside,
  {aaabfc36-718a-4ab0-b622-f186ebb45230}, !- Handle
  TARP;                                   !- Algorithm

OS:SurfaceConvectionAlgorithm:Outside,
  {9a0a9f6f-4bbd-4b12-a121-9492a1fcd7d6}, !- Handle
  DOE-2;                                  !- Algorithm

OS:HeatBalanceAlgorithm,
  {9d93e563-e1e0-46d7-9e39-d1c8aceb7212}, !- Handle
  ConductionTransferFunction,             !- Algorithm
  200;                                    !- Surface Temperature Upper Limit {F}

OS:ZoneAirHeatBalanceAlgorithm,
  {8520d93e-310f-4696-9bcd-36228bfdd743}, !- Handle
  AnalyticalSolution;                     !- Algorithm

OS:ZoneAirContaminantBalance,
  {eb5fc3ae-fb22-4160-8fcb-3e3b22b000d3}; !- Handle

OS:ZoneCapacitanceMultiplier:ResearchSpecial,
  {4020ce4f-5a7a-4849-8028-8305d7b751b1}, !- Handle
  ,                                       !- Temperature Capacity Multiplier
  ,                                       !- Humidity Capacity Multiplier
  ;                                       !- Carbon Dioxide Capacity Multiplier

OS:RunPeriod,
  {28df894d-6af9-4fb8-8f56-df1753344aa3}, !- Handle
  Run Period 1,                           !- Name
  1,                                      !- Begin Month
  1,                                      !- Begin Day of Month
  12,                                     !- End Month
  31,                                     !- End Day of Month
  ,                                       !- Use Weather File Holidays and Special Days
  ,                                       !- Use Weather File Daylight Saving Period
  ,                                       !- Apply Weekend Holiday Rule
  ,                                       !- Use Weather File Rain Indicators
  ,                                       !- Use Weather File Snow Indicators
  ;                                       !- Number of Times Runperiod to be Repeated

OS:Building,
  {bf305633-c5a1-4881-9edf-ca5e1a8e1274}, !- Handle
  Building 1,                             !- Name
  ,                                       !- Building Sector Type
  ,                                       !- North Axis {deg}
  ,                                       !- Nominal Floor to Floor Height {m}
  ,                                       !- Space Type Name
  ,                                       !- Default Construction Set Name
  {dc1b4b3e-9c5e-4912-b112-1d10f3bbed0b}, !- Default Schedule Set Name
  ,                                       !- Standards Number of Stories
  ,                                       !- Standards Number of Above Ground Stories
  ChildCare;                              !- Standards Building Type

OS:LifeCycleCost:Parameters,
  {231cf8a0-f0e7-4251-a99f-11f0d464e661}, !- Handle
  FEMP,                                   !- Analysis Type
  ,                                       !- Discounting Convention
  ,                                       !- Inflation Approach
  ,                                       !- Real Discount Rate
  ,                                       !- Nominal Discount Rate
  ,                                       !- Inflation
  ,                                       !- Base Date Month
  ,                                       !- Base Date Year
  ,                                       !- Service Date Month
  ,                                       !- Service Date Year
  ,                                       !- Length of Study Period in Years
  ,                                       !- Tax Rate
  ,                                       !- Depreciation Method
  Yes;                                    !- Use NIST Fuel Escalation Rates

OS:Facility,
  {3ba8e45b-b833-44eb-a723-ea6c3946dc96}; !- Handle

OS:SpaceType,
  {0db6e33c-6802-4b1b-be7b-fe38de645257}, !- Handle
  ChildCare|BlendEdu|DOE Ref 2004|ASHRAE 169-2006-5A, !- Name
  {b3d50344-f284-4584-927d-1f3a83c74f4a}, !- Default Construction Set Name
  ,                                       !- Default Schedule Set Name
  {92c5d616-4748-4479-b795-74e0164a810b}, !- Group Rendering Name
  {16c3529c-6aca-4426-8f6f-80d2c748bd86}, !- Design Specification Outdoor Air Object Name
  ChildCare,                              !- Standards Building Type
  BlendEdu;                               !- Standards Space Type

OS:Rendering:Color,
  {92c5d616-4748-4479-b795-74e0164a810b}, !- Handle
  Rendering Color 1,                      !- Name
  120,                                    !- Rendering Red Value
  230,                                    !- Rendering Green Value
  199;                                    !- Rendering Blue Value

OS:SpaceType,
  {03770de8-649f-4f7e-bd7f-ef1853e7eebd}, !- Handle
  ChildCare|Office|DOE Ref 2004|ASHRAE 169-2006-5A, !- Name
  {b3d50344-f284-4584-927d-1f3a83c74f4a}, !- Default Construction Set Name
  {8654d3b7-94ab-4b49-957e-d59376f3b67f}, !- Default Schedule Set Name
  {b633113d-cf5f-44d1-9ca6-5816531824b5}, !- Group Rendering Name
  {87aaedcb-0f17-4f56-b3d0-55710cc89249}, !- Design Specification Outdoor Air Object Name
  ChildCare,                              !- Standards Building Type
  Office;                                 !- Standards Space Type

OS:Rendering:Color,
  {b633113d-cf5f-44d1-9ca6-5816531824b5}, !- Handle
  Rendering Color 2,                      !- Name
  120,                                    !- Rendering Red Value
  230,                                    !- Rendering Green Value
  199;                                    !- Rendering Blue Value

OS:SpaceType,
  {b5c2cdb0-8f1f-4cff-8b41-1782f55e9051}, !- Handle
  ChildCare|Restroom|DOE Ref 2004|ASHRAE 169-2006-5A, !- Name
  {b3d50344-f284-4584-927d-1f3a83c74f4a}, !- Default Construction Set Name
  {9a97ce15-0fa5-4227-97ac-ea58d906eca1}, !- Default Schedule Set Name
  {a795a3b7-bcbb-4105-a601-31a9b0650c0d}, !- Group Rendering Name
  {5fc73336-8027-40dd-b5df-c6c3a3e5ffe8}, !- Design Specification Outdoor Air Object Name
  ChildCare,                              !- Standards Building Type
  Restroom;                               !- Standards Space Type

OS:Rendering:Color,
  {a795a3b7-bcbb-4105-a601-31a9b0650c0d}, !- Handle
  Rendering Color 3,                      !- Name
  169,                                    !- Rendering Red Value
  169,                                    !- Rendering Green Value
  31;                                     !- Rendering Blue Value

OS:Schedule:Ruleset,
  {3fb070be-1b97-48e2-9a2b-73e03af99ff6}, !- Handle
  0600|1900|ChildCare|default|hoo,        !- Name
  {eb488bfb-c05c-4c17-8bda-deeec5c8d1db}, !- Schedule Type Limits Name
  {b4e6b7cc-f7c6-4576-b5a7-8bca039c347d}, !- Default Day Schedule Name
  {8b24be46-7806-4cf5-be61-68f30a3badb8}, !- Summer Design Day Schedule Name
  {83489338-1e5c-4aca-a400-681def0952dc}; !- Winter Design Day Schedule Name

OS:Schedule:Day,
  {b4e6b7cc-f7c6-4576-b5a7-8bca039c347d}, !- Handle
  0600|1900|ChildCare|default|hoo Schedule Week Day, !- Name
  {eb488bfb-c05c-4c17-8bda-deeec5c8d1db}, !- Schedule Type Limits Name
  ,                                       !- Interpolate to Timestep
  6,                                      !- Hour 1
  0,                                      !- Minute 1
  0,                                      !- Value Until Time 1
  19,                                     !- Hour 2
  0,                                      !- Minute 2
  1,                                      !- Value Until Time 2
  24,                                     !- Hour 3
  0,                                      !- Minute 3
  0;                                      !- Value Until Time 3

OS:Schedule:Day,
  {10d607ff-b7aa-464a-86db-cf578c6f470b}, !- Handle
  Schedule Day 2,                         !- Name
  ,                                       !- Schedule Type Limits Name
  ,                                       !- Interpolate to Timestep
  24,                                     !- Hour 1
  0,                                      !- Minute 1
  0;                                      !- Value Until Time 1

OS:Schedule:Day,
  {83489338-1e5c-4aca-a400-681def0952dc}, !- Handle
  0600|1900|ChildCare|default|hoo Winter Design Day, !- Name
  {eb488bfb-c05c-4c17-8bda-deeec5c8d1db}, !- Schedule Type Limits Name
  ,                                       !- Interpolate to Timestep
  24,                                     !- Hour 1
  0,                                      !- Minute 1
  0;                                      !- Value Until Time 1

OS:Schedule:Day,
  {af50a39d-af6f-450c-8999-d4753b0e10c6}, !- Handle
  Schedule Day 3,                         !- Name
  ,                                       !- Schedule Type Limits Name
  ,                                       !- Interpolate to Timestep
  24,                                     !- Hour 1
  0,                                      !- Minute 1
  0;                                      !- Value Until Time 1

OS:Schedule:Day,
  {8b24be46-7806-4cf5-be61-68f30a3badb8}, !- Handle
  0600|1900|ChildCare|default|hoo Summer Design Day, !- Name
  {eb488bfb-c05c-4c17-8bda-deeec5c8d1db}, !- Schedule Type Limits Name
  ,                                       !- Interpolate to Timestep
  24,                                     !- Hour 1
  0,                                      !- Minute 1
  1;                                      !- Value Until Time 1

OS:DefaultScheduleSet,
  {dc1b4b3e-9c5e-4912-b112-1d10f3bbed0b}, !- Handle
  Building Hours of Operation,            !- Name
  {3fb070be-1b97-48e2-9a2b-73e03af99ff6}, !- Hours of Operation Schedule Name
  ,                                       !- Number of People Schedule Name
  ,                                       !- People Activity Level Schedule Name
  ,                                       !- Lighting Schedule Name
  ,                                       !- Electric Equipment Schedule Name
  ,                                       !- Gas Equipment Schedule Name
  ,                                       !- Hot Water Equipment Schedule Name
  ,                                       !- Infiltration Schedule Name
  ,                                       !- Steam Equipment Schedule Name
  ;                                       !- Other Equipment Schedule Name

OS:ScheduleTypeLimits,
  {eb488bfb-c05c-4c17-8bda-deeec5c8d1db}, !- Handle
  OnOff,                                  !- Name
  0,                                      !- Lower Limit Value {BasedOnField A4}
  1,                                      !- Upper Limit Value {BasedOnField A4}
  Discrete,                               !- Numeric Type
  Availability;                           !- Unit Type

OS:Schedule:Ruleset,
  {07499db5-cc58-4892-8305-c757b04928df}, !- Handle
  0600|1900|ChildCare|default|infiltration, !- Name
  {53d13ab7-bd89-47ae-8292-ad487ba4c708}, !- Schedule Type Limits Name
  {1bc2620c-4e1b-4f63-9883-18b6b2349fac}, !- Default Day Schedule Name
  {e8b7da13-3a51-4b05-824d-68c1f29b199c}, !- Summer Design Day Schedule Name
  {6570d405-d146-4c71-9ea2-6c993c64ebea}; !- Winter Design Day Schedule Name

OS:ScheduleTypeLimits,
  {53d13ab7-bd89-47ae-8292-ad487ba4c708}, !- Handle
  Fraction Schedule Type Limits,          !- Name
  0,                                      !- Lower Limit Value {BasedOnField A4}
  1,                                      !- Upper Limit Value {BasedOnField A4}
  Continuous,                             !- Numeric Type
  Dimensionless;                          !- Unit Type

OS:Schedule:Day,
  {1bc2620c-4e1b-4f63-9883-18b6b2349fac}, !- Handle
  0600|1900|ChildCare|default|infiltration |default, !- Name
  {53d13ab7-bd89-47ae-8292-ad487ba4c708}, !- Schedule Type Limits Name
  ,                                       !- Interpolate to Timestep
  5,                                      !- Hour 1
  0,                                      !- Minute 1
  1,                                      !- Value Until Time 1
  22,                                     !- Hour 2
  0,                                      !- Minute 2
  0.5,                                    !- Value Until Time 2
  24,                                     !- Hour 3
  0,                                      !- Minute 3
  1;                                      !- Value Until Time 3

OS:Schedule:Day,
  {e8b7da13-3a51-4b05-824d-68c1f29b199c}, !- Handle
  0600|1900|ChildCare|default|infiltration Summer Design Day, !- Name
  {53d13ab7-bd89-47ae-8292-ad487ba4c708}, !- Schedule Type Limits Name
  ,                                       !- Interpolate to Timestep
  5,                                      !- Hour 1
  0,                                      !- Minute 1
  1,                                      !- Value Until Time 1
  22,                                     !- Hour 2
  0,                                      !- Minute 2
  0.5,                                    !- Value Until Time 2
  24,                                     !- Hour 3
  0,                                      !- Minute 3
  1;                                      !- Value Until Time 3

OS:Schedule:Day,
  {6570d405-d146-4c71-9ea2-6c993c64ebea}, !- Handle
  0600|1900|ChildCare|default|infiltration Winter Design Day, !- Name
  {53d13ab7-bd89-47ae-8292-ad487ba4c708}, !- Schedule Type Limits Name
  ,                                       !- Interpolate to Timestep
  5,                                      !- Hour 1
  0,                                      !- Minute 1
  1,                                      !- Value Until Time 1
  22,                                     !- Hour 2
  0,                                      !- Minute 2
  0.5,                                    !- Value Until Time 2
  24,                                     !- Hour 3
  0,                                      !- Minute 3
  1;                                      !- Value Until Time 3

OS:Schedule:Ruleset,
  {9feda1a8-3043-4070-a37f-34fad6c0b38a}, !- Handle
  0600|1900|ChildCare|default|thermal_ctrl, !- Name
  {3ca2da47-1d3d-4b1c-99b7-a2995570a79b}, !- Schedule Type Limits Name
  {68b29cb5-98fd-4327-b507-f3e3c233663c}, !- Default Day Schedule Name
  {9102c04d-3a0d-424c-8f69-f3b7473713b4}, !- Summer Design Day Schedule Name
  {4f3762ce-9dab-4354-9cb7-9a305813d444}; !- Winter Design Day Schedule Name

OS:ScheduleTypeLimits,
  {3ca2da47-1d3d-4b1c-99b7-a2995570a79b}, !- Handle
  Dimensionless Schedule Type Limits,     !- Name
  ,                                       !- Lower Limit Value {BasedOnField A4}
  ,                                       !- Upper Limit Value {BasedOnField A4}
  Continuous,                             !- Numeric Type
  Dimensionless;                          !- Unit Type

OS:Schedule:Day,
  {68b29cb5-98fd-4327-b507-f3e3c233663c}, !- Handle
  0600|1900|ChildCare|default|thermal_ctrl |default, !- Name
  {3ca2da47-1d3d-4b1c-99b7-a2995570a79b}, !- Schedule Type Limits Name
  ,                                       !- Interpolate to Timestep
  24,                                     !- Hour 1
  0,                                      !- Minute 1
  4;                                      !- Value Until Time 1

OS:Schedule:Day,
  {9102c04d-3a0d-424c-8f69-f3b7473713b4}, !- Handle
  0600|1900|ChildCare|default|thermal_ctrl Summer Design Day, !- Name
  {3ca2da47-1d3d-4b1c-99b7-a2995570a79b}, !- Schedule Type Limits Name
  ,                                       !- Interpolate to Timestep
  24,                                     !- Hour 1
  0,                                      !- Minute 1
  4;                                      !- Value Until Time 1

OS:Schedule:Day,
  {4f3762ce-9dab-4354-9cb7-9a305813d444}, !- Handle
  0600|1900|ChildCare|default|thermal_ctrl Winter Design Day, !- Name
  {3ca2da47-1d3d-4b1c-99b7-a2995570a79b}, !- Schedule Type Limits Name
  ,                                       !- Interpolate to Timestep
  24,                                     !- Hour 1
  0,                                      !- Minute 1
  4;                                      !- Value Until Time 1

OS:Schedule:Ruleset,
  {43b3060a-73f3-4e95-8054-5a86497e26b3}, !- Handle
  0600|1900|ChildCare|default|swh_target_temp, !- Name
  {dbd1816f-951c-44e0-90c9-9cf1ee1613a6}, !- Schedule Type Limits Name
  {211c96c5-5ed3-4614-97d2-1fe687932b93}, !- Default Day Schedule Name
  {71f8c528-0614-438e-8d75-d90aeec69889}, !- Summer Design Day Schedule Name
  {febd8f28-4dce-4a96-99d5-9d5fbf958c6b}; !- Winter Design Day Schedule Name

OS:ScheduleTypeLimits,
  {dbd1816f-951c-44e0-90c9-9cf1ee1613a6}, !- Handle
  Temperature Schedule Type Limits,       !- Name
  ,                                       !- Lower Limit Value {BasedOnField A4}
  ,                                       !- Upper Limit Value {BasedOnField A4}
  Continuous,                             !- Numeric Type
  Temperature;                            !- Unit Type

OS:Schedule:Day,
  {211c96c5-5ed3-4614-97d2-1fe687932b93}, !- Handle
  0600|1900|ChildCare|default|swh_target_temp |default, !- Name
  {dbd1816f-951c-44e0-90c9-9cf1ee1613a6}, !- Schedule Type Limits Name
  ,                                       !- Interpolate to Timestep
  24,                                     !- Hour 1
  0,                                      !- Minute 1
  60.0000000000001;                       !- Value Until Time 1

OS:Schedule:Day,
  {71f8c528-0614-438e-8d75-d90aeec69889}, !- Handle
  0600|1900|ChildCare|default|swh_target_temp Summer Design Day, !- Name
  {dbd1816f-951c-44e0-90c9-9cf1ee1613a6}, !- Schedule Type Limits Name
  ,                                       !- Interpolate to Timestep
  24,                                     !- Hour 1
  0,                                      !- Minute 1
  60.0000000000001;                       !- Value Until Time 1

OS:Schedule:Day,
  {febd8f28-4dce-4a96-99d5-9d5fbf958c6b}, !- Handle
  0600|1900|ChildCare|default|swh_target_temp Winter Design Day, !- Name
  {dbd1816f-951c-44e0-90c9-9cf1ee1613a6}, !- Schedule Type Limits Name
  ,                                       !- Interpolate to Timestep
  24,                                     !- Hour 1
  0,                                      !- Minute 1
  60.0000000000001;                       !- Value Until Time 1

OS:Schedule:Ruleset,
  {6850b006-93d6-4dd5-a957-e465cfb729c9}, !- Handle
  0600|1900|ChildCare|default|activity,   !- Name
  {c2fbc687-72a8-41f8-b476-e727034b2568}, !- Schedule Type Limits Name
  {3211b29b-3ee8-4e4f-ada7-28ff5c2883e7}, !- Default Day Schedule Name
  {956dfa05-b3c7-4a18-bfef-e0b9d88135a2}, !- Summer Design Day Schedule Name
  {d411db43-6fb5-4c9a-a115-be2d2103930b}; !- Winter Design Day Schedule Name

OS:ScheduleTypeLimits,
  {c2fbc687-72a8-41f8-b476-e727034b2568}, !- Handle
  People Activity Type Limits,            !- Name
  0,                                      !- Lower Limit Value {BasedOnField A4}
  ,                                       !- Upper Limit Value {BasedOnField A4}
  Continuous,                             !- Numeric Type
  ActivityLevel;                          !- Unit Type

OS:Schedule:Day,
  {3211b29b-3ee8-4e4f-ada7-28ff5c2883e7}, !- Handle
  0600|1900|ChildCare|default|activity |default, !- Name
  {c2fbc687-72a8-41f8-b476-e727034b2568}, !- Schedule Type Limits Name
  ,                                       !- Interpolate to Timestep
  24,                                     !- Hour 1
  0,                                      !- Minute 1
  120;                                    !- Value Until Time 1

OS:Schedule:Day,
  {956dfa05-b3c7-4a18-bfef-e0b9d88135a2}, !- Handle
  0600|1900|ChildCare|default|activity Summer Design Day, !- Name
  {c2fbc687-72a8-41f8-b476-e727034b2568}, !- Schedule Type Limits Name
  ,                                       !- Interpolate to Timestep
  24,                                     !- Hour 1
  0,                                      !- Minute 1
  120;                                    !- Value Until Time 1

OS:Schedule:Day,
  {d411db43-6fb5-4c9a-a115-be2d2103930b}, !- Handle
  0600|1900|ChildCare|default|activity Winter Design Day, !- Name
  {c2fbc687-72a8-41f8-b476-e727034b2568}, !- Schedule Type Limits Name
  ,                                       !- Interpolate to Timestep
  24,                                     !- Hour 1
  0,                                      !- Minute 1
  120;                                    !- Value Until Time 1

OS:Schedule:Ruleset,
  {dce525ad-a72f-4265-959b-451ec308aacf}, !- Handle
  0600|1900|ChildCare|default|work_eff,   !- Name
  {53d13ab7-bd89-47ae-8292-ad487ba4c708}, !- Schedule Type Limits Name
  {0b56c125-1323-4571-9096-c9ae5bc4bb3b}, !- Default Day Schedule Name
  {f85af61d-1d00-44e2-896a-cdf0815c1a5e}, !- Summer Design Day Schedule Name
  {0abba727-4e15-449f-bea7-ac83e1aadcd7}; !- Winter Design Day Schedule Name

OS:Schedule:Day,
  {0b56c125-1323-4571-9096-c9ae5bc4bb3b}, !- Handle
  0600|1900|ChildCare|default|work_eff |default, !- Name
  {53d13ab7-bd89-47ae-8292-ad487ba4c708}, !- Schedule Type Limits Name
  ,                                       !- Interpolate to Timestep
  24,                                     !- Hour 1
  0,                                      !- Minute 1
  0;                                      !- Value Until Time 1

OS:Schedule:Day,
  {f85af61d-1d00-44e2-896a-cdf0815c1a5e}, !- Handle
  0600|1900|ChildCare|default|work_eff Summer Design Day, !- Name
  {53d13ab7-bd89-47ae-8292-ad487ba4c708}, !- Schedule Type Limits Name
  ,                                       !- Interpolate to Timestep
  24,                                     !- Hour 1
  0,                                      !- Minute 1
  0;                                      !- Value Until Time 1

OS:Schedule:Day,
  {0abba727-4e15-449f-bea7-ac83e1aadcd7}, !- Handle
  0600|1900|ChildCare|default|work_eff Winter Design Day, !- Name
  {53d13ab7-bd89-47ae-8292-ad487ba4c708}, !- Schedule Type Limits Name
  ,                                       !- Interpolate to Timestep
  24,                                     !- Hour 1
  0,                                      !- Minute 1
  0;                                      !- Value Until Time 1

OS:Schedule:Ruleset,
  {c4dc7f0c-82b9-4f27-88a3-f8ab1e515e8a}, !- Handle
  0600|1900|ChildCare|default|swh,        !- Name
  {da02bf5b-7a58-481e-b2e5-f84af0be9856}, !- Schedule Type Limits Name
  {336ce387-c583-4bac-b2b7-357b1a967ab9}, !- Default Day Schedule Name
  {08a43175-9b9e-4cc3-b9e6-371d8689c943}, !- Summer Design Day Schedule Name
  {4fcf5a5e-e1fa-4450-91b0-6eeb27e5bd4c}; !- Winter Design Day Schedule Name

OS:ScheduleTypeLimits,
  {da02bf5b-7a58-481e-b2e5-f84af0be9856}, !- Handle
  Water Use Schedule Type Limits,         !- Name
  0,                                      !- Lower Limit Value {BasedOnField A4}
  1,                                      !- Upper Limit Value {BasedOnField A4}
  Continuous,                             !- Numeric Type
  Dimensionless;                          !- Unit Type

OS:Schedule:Day,
  {336ce387-c583-4bac-b2b7-357b1a967ab9}, !- Handle
  0600|1900|ChildCare|default|swh |default, !- Name
  {da02bf5b-7a58-481e-b2e5-f84af0be9856}, !- Schedule Type Limits Name
  ,                                       !- Interpolate to Timestep
  24,                                     !- Hour 1
  0,                                      !- Minute 1
  0;                                      !- Value Until Time 1

OS:Schedule:Day,
  {08a43175-9b9e-4cc3-b9e6-371d8689c943}, !- Handle
  0600|1900|ChildCare|default|swh Summer Design Day, !- Name
  {da02bf5b-7a58-481e-b2e5-f84af0be9856}, !- Schedule Type Limits Name
  ,                                       !- Interpolate to Timestep
  24,                                     !- Hour 1
  0,                                      !- Minute 1
  0;                                      !- Value Until Time 1

OS:Schedule:Day,
  {4fcf5a5e-e1fa-4450-91b0-6eeb27e5bd4c}, !- Handle
  0600|1900|ChildCare|default|swh Winter Design Day, !- Name
  {da02bf5b-7a58-481e-b2e5-f84af0be9856}, !- Schedule Type Limits Name
  ,                                       !- Interpolate to Timestep
  24,                                     !- Hour 1
  0,                                      !- Minute 1
  0;                                      !- Value Until Time 1

OS:Schedule:Rule,
  {309a4978-adce-4e63-b8a0-33f2b4d0363c}, !- Handle
  0600|1900|ChildCare|default|swh |1/1-12/31|Sat/Sun Rule, !- Name
  {c4dc7f0c-82b9-4f27-88a3-f8ab1e515e8a}, !- Schedule Ruleset Name
  0,                                      !- Rule Order
  {3ce2a2e7-2308-40bc-bdb5-5791d9ea5cf4}, !- Day Schedule Name
  Yes,                                    !- Apply Sunday
  ,                                       !- Apply Monday
  ,                                       !- Apply Tuesday
  ,                                       !- Apply Wednesday
  ,                                       !- Apply Thursday
  ,                                       !- Apply Friday
  Yes,                                    !- Apply Saturday
  ,                                       !- Apply Holiday
  DateRange,                              !- Date Specification Type
  1,                                      !- Start Month
  1,                                      !- Start Day
  12,                                     !- End Month
  31;                                     !- End Day

OS:Schedule:Day,
  {3ce2a2e7-2308-40bc-bdb5-5791d9ea5cf4}, !- Handle
  0600|1900|ChildCare|default|swh |1/1-12/31|Sat/Sun, !- Name
  {da02bf5b-7a58-481e-b2e5-f84af0be9856}, !- Schedule Type Limits Name
  ,                                       !- Interpolate to Timestep
  24,                                     !- Hour 1
  0,                                      !- Minute 1
  0;                                      !- Value Until Time 1

OS:Schedule:Ruleset,
  {a5dd5ef8-91f4-48a5-a4b5-51d3ef839d71}, !- Handle
  0600|1900|ChildCare|default|ext_lighting, !- Name
  {09955491-bc51-42e2-b548-1cbeca6e2906}, !- Schedule Type Limits Name
  {623518c8-a72a-4eae-876d-96cd42349546}, !- Default Day Schedule Name
  {138df240-469f-46ba-ac30-05799bcc93ed}, !- Summer Design Day Schedule Name
  {d3eb74d1-0599-4757-af7b-66fb7a8b8a0d}; !- Winter Design Day Schedule Name

OS:ScheduleTypeLimits,
  {09955491-bc51-42e2-b548-1cbeca6e2906}, !- Handle
  Lights Schedule Type Limits,            !- Name
  0,                                      !- Lower Limit Value {BasedOnField A4}