
OS:Version,
  {39538013-347b-4f74-8dbe-3df866065beb}, !- Handle
  1.5.5;                                  !- Version Identifier

OS:ClimateZones,
  {135edfab-17e7-40db-a436-27d385a8cd6d}, !- Handle
  ,                                       !- Active Institution
  ,                                       !- Active Year
  ASHRAE,                                 !- Climate Zone Institution Name 1
  ANSI/ASHRAE Standard 169,               !- Climate Zone Document Name 1
  2006,                                   !- Climate Zone Document Year 1
  ,                                       !- Climate Zone Value 1
  CEC,                                    !- Climate Zone Institution Name 2
  California Climate Zone Descriptions,   !- Climate Zone Document Name 2
  1995,                                   !- Climate Zone Document Year 2
  ;                                       !- Climate Zone Value 2

OS:YearDescription,
  {513d8dda-86cb-442a-b01c-1f7f0e0ac70e}; !- Handle

OS:RadianceParameters,
  {270a96f1-3c86-4b75-a667-cdf22790e2c8}, !- Handle
  1,                                      !- Accumulated Rays per Record
  0,                                      !- Direct Threshold
  1,                                      !- Direct Certainty
  1,                                      !- Direct Jitter
  1,                                      !- Direct Pretest
  6,                                      !- Ambient Bounces VMX
  2,                                      !- Ambient Bounces DMX
  4050,                                   !- Ambient Divisions VMX
  512,                                    !- Ambient Divisions DMX
  256,                                    !- Ambient Supersamples
  0.001,                                  !- Limit Weight VMX
  0.001,                                  !- Limit Weight DMX
  500,                                    !- Klems Sampling Density
  146;                                    !- Sky Discretization Resolution

OS:SimulationControl,
  {2c487a4c-bac9-4ac5-b669-1e49d9da7c2b}, !- Handle
  ,                                       !- Do Zone Sizing Calculation
  ,                                       !- Do System Sizing Calculation
  ,                                       !- Do Plant Sizing Calculation
  No,                                     !- Run Simulation for Sizing Periods
  ,                                       !- Run Simulation for Weather File Run Periods
  0.04,                                   !- Loads Convergence Tolerance Value
  ,                                       !- Temperature Convergence Tolerance Value {deltaC}
  ,                                       !- Solar Distribution
  ,                                       !- Maximum Number of Warmup Days
  2;                                      !- Minimum Number of Warmup Days

OS:Sizing:Parameters,
  {dde5af6f-7923-4600-a28a-7556673a0266}, !- Handle
  1.25,                                   !- Heating Sizing Factor
  1.15;                                   !- Cooling Sizing Factor

OS:ProgramControl,
  {05027a99-f2b3-4aeb-afc6-1425fbb4371d}; !- Handle

OS:Timestep,
  {4ebc9f1e-4707-402e-9844-67eb1ffbd522}, !- Handle
  2;                                      !- Number of Timesteps per Hour

OS:OutputControl:ReportingTolerances,
  {65797aa2-06a9-45fe-b69d-bc6e060399d3}; !- Handle

OS:ConvergenceLimits,
  {9fc11aba-8822-4f3d-970c-46391ba4040d}; !- Handle

OS:ShadowCalculation,
  {ca758bea-4416-4626-9bba-3d8795c79bd6}, !- Handle
  7,                                      !- Calculation Frequency
  15000;                                  !- Maximum Figures in Shadow Overlap Calculations

OS:SurfaceConvectionAlgorithm:Inside,
  {aaabfc36-718a-4ab0-b622-f186ebb45230}, !- Handle
  TARP;                                   !- Algorithm

OS:SurfaceConvectionAlgorithm:Outside,
  {9a0a9f6f-4bbd-4b12-a121-9492a1fcd7d6}, !- Handle
  DOE-2;                                  !- Algorithm

OS:HeatBalanceAlgorithm,
  {9d93e563-e1e0-46d7-9e39-d1c8aceb7212}, !- Handle
  ConductionTransferFunction,             !- Algorithm
  200;                                    !- Surface Temperature Upper Limit {F}

OS:ZoneAirHeatBalanceAlgorithm,
  {8520d93e-310f-4696-9bcd-36228bfdd743}, !- Handle
  AnalyticalSolution;                     !- Algorithm

OS:ZoneAirContaminantBalance,
  {eb5fc3ae-fb22-4160-8fcb-3e3b22b000d3}; !- Handle

OS:ZoneCapacitanceMultiplier:ResearchSpecial,
  {4020ce4f-5a7a-4849-8028-8305d7b751b1}, !- Handle
  ,                                       !- Temperature Capacity Multiplier
  ,                                       !- Humidity Capacity Multiplier
  ;                                       !- Carbon Dioxide Capacity Multiplier

OS:RunPeriod,
  {28df894d-6af9-4fb8-8f56-df1753344aa3}, !- Handle
  Run Period 1,                           !- Name
  1,                                      !- Begin Month
  1,                                      !- Begin Day of Month
  12,                                     !- End Month
  31,                                     !- End Day of Month
  ,                                       !- Use Weather File Holidays and Special Days
  ,                                       !- Use Weather File Daylight Saving Period
  ,                                       !- Apply Weekend Holiday Rule
  ,                                       !- Use Weather File Rain Indicators
  ,                                       !- Use Weather File Snow Indicators
  ;                                       !- Number of Times Runperiod to be Repeated

OS:Building,
  {bf305633-c5a1-4881-9edf-ca5e1a8e1274}, !- Handle
  Building 1,                             !- Name
  ,                                       !- Building Sector Type
  ,                                       !- North Axis {deg}
  ,                                       !- Nominal Floor to Floor Height {m}
  ,                                       !- Space Type Name
  ,                                       !- Default Construction Set Name
  {13dd0741-8c98-49c8-a2d7-7b6754755656}, !- Default Schedule Set Name
  ,                                       !- Standards Number of Stories
  ,                                       !- Standards Number of Above Ground Stories
  ChildCare;                              !- Standards Building Type

OS:LifeCycleCost:Parameters,
  {231cf8a0-f0e7-4251-a99f-11f0d464e661}, !- Handle
  FEMP,                                   !- Analysis Type
  ,                                       !- Discounting Convention
  ,                                       !- Inflation Approach
  ,                                       !- Real Discount Rate
  ,                                       !- Nominal Discount Rate
  ,                                       !- Inflation
  ,                                       !- Base Date Month
  ,                                       !- Base Date Year
  ,                                       !- Service Date Month
  ,                                       !- Service Date Year
  ,                                       !- Length of Study Period in Years
  ,                                       !- Tax Rate
  ,                                       !- Depreciation Method
  Yes;                                    !- Use NIST Fuel Escalation Rates

OS:Facility,
  {3ba8e45b-b833-44eb-a723-ea6c3946dc96}; !- Handle

OS:SpaceType,
  {17cbd22c-5441-4d82-a8a0-2bd5acaad713}, !- Handle
  ChildCare|BlendEdu|DOE Ref 1980-2004|ASHRAE 169-2006-5A, !- Name
  {bf12e4af-57ae-4807-8535-a04333e16ec3}, !- Default Construction Set Name
  ,                                       !- Default Schedule Set Name
  {eb89f42c-5701-45c2-89d6-b2a526e0ebde}, !- Group Rendering Name
  {349b13b6-1adf-4f8a-8d85-0c75e5b9c58e}, !- Design Specification Outdoor Air Object Name
  ChildCare,                              !- Standards Building Type
  BlendEdu;                               !- Standards Space Type

OS:Rendering:Color,
  {eb89f42c-5701-45c2-89d6-b2a526e0ebde}, !- Handle
  Rendering Color 1,                      !- Name
  120,                                    !- Rendering Red Value
  230,                                    !- Rendering Green Value
  199;                                    !- Rendering Blue Value

OS:SpaceType,
  {94d6f961-ab32-491b-8267-89116b145b6b}, !- Handle
  ChildCare|Office|DOE Ref 1980-2004|ASHRAE 169-2006-5A, !- Name
  {bf12e4af-57ae-4807-8535-a04333e16ec3}, !- Default Construction Set Name
  {00b6cab1-4592-42a7-bdb0-c84fb8a41391}, !- Default Schedule Set Name
  {f17332ab-6745-4b00-808c-c345caa65852}, !- Group Rendering Name
  {720508df-981e-483d-b134-cc6609cd8f50}, !- Design Specification Outdoor Air Object Name
  ChildCare,                              !- Standards Building Type
  Office;                                 !- Standards Space Type

OS:Rendering:Color,
  {f17332ab-6745-4b00-808c-c345caa65852}, !- Handle
  Rendering Color 2,                      !- Name
  120,                                    !- Rendering Red Value
  230,                                    !- Rendering Green Value
  199;                                    !- Rendering Blue Value

OS:SpaceType,
  {9fb93a31-6887-4055-b71a-de3b50bdc3bb}, !- Handle
  ChildCare|Restroom|DOE Ref 1980-2004|ASHRAE 169-2006-5A, !- Name
  {bf12e4af-57ae-4807-8535-a04333e16ec3}, !- Default Construction Set Name
  {331a2dbd-2796-4a0c-b2ee-a3b46d726c8b}, !- Default Schedule Set Name
  {4046dbb5-1c58-429d-bff0-7472f21d945e}, !- Group Rendering Name
  {6080d188-fbb1-497e-92b9-68c8e54533e7}, !- Design Specification Outdoor Air Object Name
  ChildCare,                              !- Standards Building Type
  Restroom;                               !- Standards Space Type

OS:Rendering:Color,
  {4046dbb5-1c58-429d-bff0-7472f21d945e}, !- Handle
  Rendering Color 3,                      !- Name
  169,                                    !- Rendering Red Value
  169,                                    !- Rendering Green Value
  31;                                     !- Rendering Blue Value

OS:Schedule:Ruleset,
  {4fd1e0bb-3365-4ca7-b7da-b60f0b19a146}, !- Handle
  0600|1900|ChildCare|default|hoo,        !- Name
  {23661abd-c14e-4b47-b8d5-1278c8de5ed1}, !- Schedule Type Limits Name
  {27ef841d-9574-4a85-98eb-7944622e0c1f}, !- Default Day Schedule Name
  {3f9586fe-070c-4b3f-94b4-ea15ee2458fc}, !- Summer Design Day Schedule Name
  {e274e216-da05-44dd-996e-32c92d2504bf}; !- Winter Design Day Schedule Name

OS:Schedule:Day,
  {27ef841d-9574-4a85-98eb-7944622e0c1f}, !- Handle
  0600|1900|ChildCare|default|hoo Schedule Week Day, !- Name
  {23661abd-c14e-4b47-b8d5-1278c8de5ed1}, !- Schedule Type Limits Name
  ,                                       !- Interpolate to Timestep
  6,                                      !- Hour 1
  0,                                      !- Minute 1
  0,                                      !- Value Until Time 1
  19,                                     !- Hour 2
  0,                                      !- Minute 2
  1,                                      !- Value Until Time 2
  24,                                     !- Hour 3
  0,                                      !- Minute 3
  0;                                      !- Value Until Time 3

OS:Schedule:Day,
  {73640c25-9ae8-4e4d-8218-39f7d52200a9}, !- Handle
  Schedule Day 2,                         !- Name
  ,                                       !- Schedule Type Limits Name
  ,                                       !- Interpolate to Timestep
  24,                                     !- Hour 1
  0,                                      !- Minute 1
  0;                                      !- Value Until Time 1

OS:Schedule:Day,
  {e274e216-da05-44dd-996e-32c92d2504bf}, !- Handle
  0600|1900|ChildCare|default|hoo Winter Design Day, !- Name
  {23661abd-c14e-4b47-b8d5-1278c8de5ed1}, !- Schedule Type Limits Name
  ,                                       !- Interpolate to Timestep
  24,                                     !- Hour 1
  0,                                      !- Minute 1
  0;                                      !- Value Until Time 1

OS:Schedule:Day,
  {f8cedf77-2972-4b21-9982-5bd144ff6e34}, !- Handle
  Schedule Day 3,                         !- Name
  ,                                       !- Schedule Type Limits Name
  ,                                       !- Interpolate to Timestep
  24,                                     !- Hour 1
  0,                                      !- Minute 1
  0;                                      !- Value Until Time 1

OS:Schedule:Day,
  {3f9586fe-070c-4b3f-94b4-ea15ee2458fc}, !- Handle
  0600|1900|ChildCare|default|hoo Summer Design Day, !- Name
  {23661abd-c14e-4b47-b8d5-1278c8de5ed1}, !- Schedule Type Limits Name
  ,                                       !- Interpolate to Timestep
  24,                                     !- Hour 1
  0,                                      !- Minute 1
  1;                                      !- Value Until Time 1

OS:DefaultScheduleSet,
  {13dd0741-8c98-49c8-a2d7-7b6754755656}, !- Handle
  Building Hours of Operation,            !- Name
  {4fd1e0bb-3365-4ca7-b7da-b60f0b19a146}, !- Hours of Operation Schedule Name
  ,                                       !- Number of People Schedule Name
  ,                                       !- People Activity Level Schedule Name
  ,                                       !- Lighting Schedule Name
  ,                                       !- Electric Equipment Schedule Name
  ,                                       !- Gas Equipment Schedule Name
  ,                                       !- Hot Water Equipment Schedule Name
  ,                                       !- Infiltration Schedule Name
  ,                                       !- Steam Equipment Schedule Name
  ;                                       !- Other Equipment Schedule Name

OS:ScheduleTypeLimits,
  {23661abd-c14e-4b47-b8d5-1278c8de5ed1}, !- Handle
  OnOff,                                  !- Name
  0,                                      !- Lower Limit Value {BasedOnField A4}
  1,                                      !- Upper Limit Value {BasedOnField A4}
  Discrete,                               !- Numeric Type
  Availability;                           !- Unit Type

OS:Schedule:Ruleset,
  {db16afa9-acca-4407-bf4c-66a32eef3803}, !- Handle
  0600|1900|ChildCare|default|infiltration, !- Name
  {82638da6-d821-4b6e-ae88-8af8768d9ce1}, !- Schedule Type Limits Name
  {348b4410-e68a-47f4-90a5-e18ae107f7c9}, !- Default Day Schedule Name
  {4ded39c8-8e2c-4f56-921b-20b87e79e0a7}, !- Summer Design Day Schedule Name
  {801cfec1-fbcc-4b4d-a5e6-57299b3bf119}; !- Winter Design Day Schedule Name

OS:ScheduleTypeLimits,
  {82638da6-d821-4b6e-ae88-8af8768d9ce1}, !- Handle
  Fraction Schedule Type Limits,          !- Name
  0,                                      !- Lower Limit Value {BasedOnField A4}
  1,                                      !- Upper Limit Value {BasedOnField A4}
  Continuous,                             !- Numeric Type
  Dimensionless;                          !- Unit Type

OS:Schedule:Day,
  {348b4410-e68a-47f4-90a5-e18ae107f7c9}, !- Handle
  0600|1900|ChildCare|default|infiltration |default, !- Name
  {82638da6-d821-4b6e-ae88-8af8768d9ce1}, !- Schedule Type Limits Name
  ,                                       !- Interpolate to Timestep
  5,                                      !- Hour 1
  0,                                      !- Minute 1
  1,                                      !- Value Until Time 1
  22,                                     !- Hour 2
  0,                                      !- Minute 2
  0.5,                                    !- Value Until Time 2
  24,                                     !- Hour 3
  0,                                      !- Minute 3
  1;                                      !- Value Until Time 3

OS:Schedule:Day,
  {4ded39c8-8e2c-4f56-921b-20b87e79e0a7}, !- Handle
  0600|1900|ChildCare|default|infiltration Summer Design Day, !- Name
  {82638da6-d821-4b6e-ae88-8af8768d9ce1}, !- Schedule Type Limits Name
  ,                                       !- Interpolate to Timestep
  5,                                      !- Hour 1
  0,                                      !- Minute 1
  1,                                      !- Value Until Time 1
  22,                                     !- Hour 2
  0,                                      !- Minute 2
  0.5,                                    !- Value Until Time 2
  24,                                     !- Hour 3
  0,                                      !- Minute 3
  1;                                      !- Value Until Time 3

OS:Schedule:Day,
  {801cfec1-fbcc-4b4d-a5e6-57299b3bf119}, !- Handle
  0600|1900|ChildCare|default|infiltration Winter Design Day, !- Name
  {82638da6-d821-4b6e-ae88-8af8768d9ce1}, !- Schedule Type Limits Name
  ,                                       !- Interpolate to Timestep
  5,                                      !- Hour 1
  0,                                      !- Minute 1
  1,                                      !- Value Until Time 1
  22,                                     !- Hour 2
  0,                                      !- Minute 2
  0.5,                                    !- Value Until Time 2
  24,                                     !- Hour 3
  0,                                      !- Minute 3
  1;                                      !- Value Until Time 3

OS:Schedule:Ruleset,
  {df6bf45f-1988-40d2-9bae-b2acb967e9a4}, !- Handle
  0600|1900|ChildCare|default|thermal_ctrl, !- Name
  {c1bf579a-d6d5-40aa-83cb-a65ab97cc49a}, !- Schedule Type Limits Name
  {73be2de9-6a0d-4260-87f1-34d5af51f77b}, !- Default Day Schedule Name
  {7e312905-ed7b-4cd5-866b-00e19ca565b2}, !- Summer Design Day Schedule Name
  {dc1b220d-c642-4b20-88b4-e7dc2cd55388}; !- Winter Design Day Schedule Name

OS:ScheduleTypeLimits,
  {c1bf579a-d6d5-40aa-83cb-a65ab97cc49a}, !- Handle
  Dimensionless Schedule Type Limits,     !- Name
  ,                                       !- Lower Limit Value {BasedOnField A4}
  ,                                       !- Upper Limit Value {BasedOnField A4}
  Continuous,                             !- Numeric Type
  Dimensionless;                          !- Unit Type

OS:Schedule:Day,
  {73be2de9-6a0d-4260-87f1-34d5af51f77b}, !- Handle
  0600|1900|ChildCare|default|thermal_ctrl |default, !- Name
  {c1bf579a-d6d5-40aa-83cb-a65ab97cc49a}, !- Schedule Type Limits Name
  ,                                       !- Interpolate to Timestep
  24,                                     !- Hour 1
  0,                                      !- Minute 1
  4;                                      !- Value Until Time 1

OS:Schedule:Day,
  {7e312905-ed7b-4cd5-866b-00e19ca565b2}, !- Handle
  0600|1900|ChildCare|default|thermal_ctrl Summer Design Day, !- Name
  {c1bf579a-d6d5-40aa-83cb-a65ab97cc49a}, !- Schedule Type Limits Name
  ,                                       !- Interpolate to Timestep
  24,                                     !- Hour 1
  0,                                      !- Minute 1
  4;                                      !- Value Until Time 1

OS:Schedule:Day,
  {dc1b220d-c642-4b20-88b4-e7dc2cd55388}, !- Handle
  0600|1900|ChildCare|default|thermal_ctrl Winter Design Day, !- Name
  {c1bf579a-d6d5-40aa-83cb-a65ab97cc49a}, !- Schedule Type Limits Name
  ,                                       !- Interpolate to Timestep
  24,                                     !- Hour 1
  0,                                      !- Minute 1
  4;                                      !- Value Until Time 1

OS:Schedule:Ruleset,
  {b22d4bf4-a3ff-4a30-8a2c-f9819269c475}, !- Handle
  0600|1900|ChildCare|default|swh_target_temp, !- Name
  {b64395dc-2732-44c6-89ec-bb6d8d55f8b3}, !- Schedule Type Limits Name
  {d94dd916-eb65-4881-a59e-6b7e7b148a84}, !- Default Day Schedule Name
  {ef9af684-dcb4-4c2d-b93f-0a416a14062c}, !- Summer Design Day Schedule Name
  {cc69dab0-8068-4845-af5d-dabedc01f66f}; !- Winter Design Day Schedule Name

OS:ScheduleTypeLimits,
  {b64395dc-2732-44c6-89ec-bb6d8d55f8b3}, !- Handle
  Temperature Schedule Type Limits,       !- Name
  ,                                       !- Lower Limit Value {BasedOnField A4}
  ,                                       !- Upper Limit Value {BasedOnField A4}
  Continuous,                             !- Numeric Type
  Temperature;                            !- Unit Type

OS:Schedule:Day,
  {d94dd916-eb65-4881-a59e-6b7e7b148a84}, !- Handle
  0600|1900|ChildCare|default|swh_target_temp |default, !- Name
  {b64395dc-2732-44c6-89ec-bb6d8d55f8b3}, !- Schedule Type Limits Name
  ,                                       !- Interpolate to Timestep
  24,                                     !- Hour 1
  0,                                      !- Minute 1
  60.0000000000001;                       !- Value Until Time 1

OS:Schedule:Day,
  {ef9af684-dcb4-4c2d-b93f-0a416a14062c}, !- Handle
  0600|1900|ChildCare|default|swh_target_temp Summer Design Day, !- Name
  {b64395dc-2732-44c6-89ec-bb6d8d55f8b3}, !- Schedule Type Limits Name
  ,                                       !- Interpolate to Timestep
  24,                                     !- Hour 1
  0,                                      !- Minute 1
  60.0000000000001;                       !- Value Until Time 1

OS:Schedule:Day,
  {cc69dab0-8068-4845-af5d-dabedc01f66f}, !- Handle
  0600|1900|ChildCare|default|swh_target_temp Winter Design Day, !- Name
  {b64395dc-2732-44c6-89ec-bb6d8d55f8b3}, !- Schedule Type Limits Name
  ,                                       !- Interpolate to Timestep
  24,                                     !- Hour 1
  0,                                      !- Minute 1
  60.0000000000001;                       !- Value Until Time 1

OS:Schedule:Ruleset,
  {92f3e982-22a9-468b-9ee3-06abb9e2d093}, !- Handle
  0600|1900|ChildCare|default|activity,   !- Name
  {93fb827a-2b86-4809-bcdb-d82456f3585d}, !- Schedule Type Limits Name
  {55a92433-168a-4de9-a8f1-fb0448ae67ae}, !- Default Day Schedule Name
  {151544c0-41c8-4724-a243-15bea88d9e8d}, !- Summer Design Day Schedule Name
  {4794cf79-d989-4763-ab03-93d31ef00e0d}; !- Winter Design Day Schedule Name

OS:ScheduleTypeLimits,
  {93fb827a-2b86-4809-bcdb-d82456f3585d}, !- Handle
  People Activity Type Limits,            !- Name
  0,                                      !- Lower Limit Value {BasedOnField A4}
  ,                                       !- Upper Limit Value {BasedOnField A4}
  Continuous,                             !- Numeric Type
  ActivityLevel;                          !- Unit Type

OS:Schedule:Day,
  {55a92433-168a-4de9-a8f1-fb0448ae67ae}, !- Handle
  0600|1900|ChildCare|default|activity |default, !- Name
  {93fb827a-2b86-4809-bcdb-d82456f3585d}, !- Schedule Type Limits Name
  ,                                       !- Interpolate to Timestep
  24,                                     !- Hour 1
  0,                                      !- Minute 1
  120;                                    !- Value Until Time 1

OS:Schedule:Day,
  {151544c0-41c8-4724-a243-15bea88d9e8d}, !- Handle
  0600|1900|ChildCare|default|activity Summer Design Day, !- Name
  {93fb827a-2b86-4809-bcdb-d82456f3585d}, !- Schedule Type Limits Name
  ,                                       !- Interpolate to Timestep
  24,                                     !- Hour 1
  0,                                      !- Minute 1
  120;                                    !- Value Until Time 1

OS:Schedule:Day,
  {4794cf79-d989-4763-ab03-93d31ef00e0d}, !- Handle
  0600|1900|ChildCare|default|activity Winter Design Day, !- Name
  {93fb827a-2b86-4809-bcdb-d82456f3585d}, !- Schedule Type Limits Name
  ,                                       !- Interpolate to Timestep
  24,                                     !- Hour 1
  0,                                      !- Minute 1
  120;                                    !- Value Until Time 1

OS:Schedule:Ruleset,
  {4283a74c-6a3c-43ef-88ec-75e0c08e79ab}, !- Handle
  0600|1900|ChildCare|default|work_eff,   !- Name
  {82638da6-d821-4b6e-ae88-8af8768d9ce1}, !- Schedule Type Limits Name
  {f55427a9-60f2-4d6e-b85a-3627db8c4b8b}, !- Default Day Schedule Name
  {67b920c9-0bcf-4bef-90af-a23e70a3427f}, !- Summer Design Day Schedule Name
  {4e31a9cc-a403-4087-9096-bb72bee2fae7}; !- Winter Design Day Schedule Name

OS:Schedule:Day,
  {f55427a9-60f2-4d6e-b85a-3627db8c4b8b}, !- Handle
  0600|1900|ChildCare|default|work_eff |default, !- Name
  {82638da6-d821-4b6e-ae88-8af8768d9ce1}, !- Schedule Type Limits Name
  ,                                       !- Interpolate to Timestep
  24,                                     !- Hour 1
  0,                                      !- Minute 1
  0;                                      !- Value Until Time 1

OS:Schedule:Day,
  {67b920c9-0bcf-4bef-90af-a23e70a3427f}, !- Handle
  0600|1900|ChildCare|default|work_eff Summer Design Day, !- Name
  {82638da6-d821-4b6e-ae88-8af8768d9ce1}, !- Schedule Type Limits Name
  ,                                       !- Interpolate to Timestep
  24,                                     !- Hour 1
  0,                                      !- Minute 1
  0;                                      !- Value Until Time 1

OS:Schedule:Day,
  {4e31a9cc-a403-4087-9096-bb72bee2fae7}, !- Handle
  0600|1900|ChildCare|default|work_eff Winter Design Day, !- Name
  {82638da6-d821-4b6e-ae88-8af8768d9ce1}, !- Schedule Type Limits Name
  ,                                       !- Interpolate to Timestep
  24,                                     !- Hour 1
  0,                                      !- Minute 1
  0;                                      !- Value Until Time 1

OS:Schedule:Ruleset,
  {a9b514ee-f017-4470-9c86-d76727329f79}, !- Handle
  0600|1900|ChildCare|default|swh,        !- Name
  {cc0e105d-763c-40f6-a11a-dce7e4c29977}, !- Schedule Type Limits Name
  {7f59c539-3e76-4cf7-be7f-95f5323d6f46}, !- Default Day Schedule Name
  {0f135f2e-6647-47fa-b907-990b85c0a82c}, !- Summer Design Day Schedule Name
  {127bd91c-c8c0-460a-8790-540d2ee12a6a}; !- Winter Design Day Schedule Name

OS:ScheduleTypeLimits,
  {cc0e105d-763c-40f6-a11a-dce7e4c29977}, !- Handle
  Water Use Schedule Type Limits,         !- Name
  0,                                      !- Lower Limit Value {BasedOnField A4}
  1,                                      !- Upper Limit Value {BasedOnField A4}
  Continuous,                             !- Numeric Type
  Dimensionless;                          !- Unit Type

OS:Schedule:Day,
  {7f59c539-3e76-4cf7-be7f-95f5323d6f46}, !- Handle
  0600|1900|ChildCare|default|swh |default, !- Name
  {cc0e105d-763c-40f6-a11a-dce7e4c29977}, !- Schedule Type Limits Name
  ,                                       !- Interpolate to Timestep
  24,                                     !- Hour 1
  0,                                      !- Minute 1
  0;                                      !- Value Until Time 1

OS:Schedule:Day,
  {0f135f2e-6647-47fa-b907-990b85c0a82c}, !- Handle
  0600|1900|ChildCare|default|swh Summer Design Day, !- Name
  {cc0e105d-763c-40f6-a11a-dce7e4c29977}, !- Schedule Type Limits Name
  ,                                       !- Interpolate to Timestep
  24,                                     !- Hour 1
  0,                                      !- Minute 1
  0;                                      !- Value Until Time 1

OS:Schedule:Day,
  {127bd91c-c8c0-460a-8790-540d2ee12a6a}, !- Handle
  0600|1900|ChildCare|default|swh Winter Design Day, !- Name
  {cc0e105d-763c-40f6-a11a-dce7e4c29977}, !- Schedule Type Limits Name
  ,                                       !- Interpolate to Timestep
  24,                                     !- Hour 1
  0,                                      !- Minute 1
  0;                                      !- Value Until Time 1

OS:Schedule:Rule,
  {170bd527-c959-47ed-a015-3b06f0a860a5}, !- Handle
  0600|1900|ChildCare|default|swh |1/1-12/31|Sat/Sun Rule, !- Name
  {a9b514ee-f017-4470-9c86-d76727329f79}, !- Schedule Ruleset Name
  0,                                      !- Rule Order
  {2bc192be-0980-4132-ac4e-7dde8844f5ad}, !- Day Schedule Name
  Yes,                                    !- Apply Sunday
  ,                                       !- Apply Monday
  ,                                       !- Apply Tuesday
  ,                                       !- Apply Wednesday
  ,                                       !- Apply Thursday
  ,                                       !- Apply Friday
  Yes,                                    !- Apply Saturday
  ,                                       !- Apply Holiday
  DateRange,                              !- Date Specification Type
  1,                                      !- Start Month
  1,                                      !- Start Day
  12,                                     !- End Month
  31;                                     !- End Day

OS:Schedule:Day,
  {2bc192be-0980-4132-ac4e-7dde8844f5ad}, !- Handle
  0600|1900|ChildCare|default|swh |1/1-12/31|Sat/Sun, !- Name
  {cc0e105d-763c-40f6-a11a-dce7e4c29977}, !- Schedule Type Limits Name
  ,                                       !- Interpolate to Timestep
  24,                                     !- Hour 1
  0,                                      !- Minute 1
  0;                                      !- Value Until Time 1

OS:Schedule:Ruleset,
  {8001b504-0c1c-4c38-b026-4bb86d88ca2b}, !- Handle
  0600|1900|ChildCare|default|ext_lighting, !- Name
  {b762bfc0-02a8-461c-bb81-eeab9673b46f}, !- Schedule Type Limits Name
  {fa3789f4-7112-45b3-950a-62ac6a8db557}, !- Default Day Schedule Name
  {9ef2a96c-af47-4c76-b6ff-6c65a47cefe3}, !- Summer Design Day Schedule Name
  {4a4cdab2-e4e8-4d9c-9029-8a475d6fddf2}; !- Winter Design Day Schedule Name

OS:ScheduleTypeLimits,
  {b762bfc0-02a8-461c-bb81-eeab9673b46f}, !- Handle
  Lights Schedule Type Limits,            !- Name
  0,                                      !- Lower Limit Value {BasedOnField A4}