
OS:Version,
  {41074433-c945-4298-9fcd-a901cab149ca}, !- Handle
  1.5.5;                                  !- Version Identifier

OS:ClimateZones,
  {135edfab-17e7-40db-a436-27d385a8cd6d}, !- Handle
  ,                                       !- Active Institution
  ,                                       !- Active Year
  ASHRAE,                                 !- Climate Zone Institution Name 1
  ANSI/ASHRAE Standard 169,               !- Climate Zone Document Name 1
  2006,                                   !- Climate Zone Document Year 1
  ,                                       !- Climate Zone Value 1
  CEC,                                    !- Climate Zone Institution Name 2
  California Climate Zone Descriptions,   !- Climate Zone Document Name 2
  1995,                                   !- Climate Zone Document Year 2
  ;                                       !- Climate Zone Value 2

OS:YearDescription,
  {513d8dda-86cb-442a-b01c-1f7f0e0ac70e}, !- Handle
  2013,                                   !- Calendar Year
  ,                                       !- Day of Week for Start Day
  ;                                       !- Is Leap Year

OS:RadianceParameters,
  {270a96f1-3c86-4b75-a667-cdf22790e2c8}, !- Handle
  1,                                      !- Accumulated Rays per Record
  0,                                      !- Direct Threshold
  1,                                      !- Direct Certainty
  1,                                      !- Direct Jitter
  1,                                      !- Direct Pretest
  6,                                      !- Ambient Bounces VMX
  2,                                      !- Ambient Bounces DMX
  4050,                                   !- Ambient Divisions VMX
  512,                                    !- Ambient Divisions DMX
  256,                                    !- Ambient Supersamples
  0.001,                                  !- Limit Weight VMX
  0.001,                                  !- Limit Weight DMX
  500,                                    !- Klems Sampling Density
  146;                                    !- Sky Discretization Resolution

OS:SimulationControl,
  {2c487a4c-bac9-4ac5-b669-1e49d9da7c2b}, !- Handle
  ,                                       !- Do Zone Sizing Calculation
  ,                                       !- Do System Sizing Calculation
  ,                                       !- Do Plant Sizing Calculation
  No,                                     !- Run Simulation for Sizing Periods
  Yes,                                    !- Run Simulation for Weather File Run Periods
  0.04,                                   !- Loads Convergence Tolerance Value
  ,                                       !- Temperature Convergence Tolerance Value {deltaC}
  ,                                       !- Solar Distribution
  ,                                       !- Maximum Number of Warmup Days
  2;                                      !- Minimum Number of Warmup Days

OS:Sizing:Parameters,
  {dde5af6f-7923-4600-a28a-7556673a0266}, !- Handle
  1.25,                                   !- Heating Sizing Factor
  1.15;                                   !- Cooling Sizing Factor

OS:ProgramControl,
  {05027a99-f2b3-4aeb-afc6-1425fbb4371d}; !- Handle

OS:Timestep,
  {4ebc9f1e-4707-402e-9844-67eb1ffbd522}, !- Handle
  2;                                      !- Number of Timesteps per Hour

OS:OutputControl:ReportingTolerances,
  {65797aa2-06a9-45fe-b69d-bc6e060399d3}; !- Handle

OS:ConvergenceLimits,
  {9fc11aba-8822-4f3d-970c-46391ba4040d}; !- Handle

OS:ShadowCalculation,
  {ca758bea-4416-4626-9bba-3d8795c79bd6}, !- Handle
  7,                                      !- Calculation Frequency
  15000;                                  !- Maximum Figures in Shadow Overlap Calculations

OS:SurfaceConvectionAlgorithm:Inside,
  {aaabfc36-718a-4ab0-b622-f186ebb45230}, !- Handle
  TARP;                                   !- Algorithm

OS:SurfaceConvectionAlgorithm:Outside,
  {9a0a9f6f-4bbd-4b12-a121-9492a1fcd7d6}, !- Handle
  DOE-2;                                  !- Algorithm

OS:HeatBalanceAlgorithm,
  {9d93e563-e1e0-46d7-9e39-d1c8aceb7212}, !- Handle
  ConductionTransferFunction,             !- Algorithm
  200;                                    !- Surface Temperature Upper Limit {F}

OS:ZoneAirHeatBalanceAlgorithm,
  {8520d93e-310f-4696-9bcd-36228bfdd743}, !- Handle
  AnalyticalSolution;                     !- Algorithm

OS:ZoneAirContaminantBalance,
  {eb5fc3ae-fb22-4160-8fcb-3e3b22b000d3}; !- Handle

OS:ZoneCapacitanceMultiplier:ResearchSpecial,
  {4020ce4f-5a7a-4849-8028-8305d7b751b1}, !- Handle
  ,                                       !- Temperature Capacity Multiplier
  ,                                       !- Humidity Capacity Multiplier
  ;                                       !- Carbon Dioxide Capacity Multiplier

OS:RunPeriod,
  {28df894d-6af9-4fb8-8f56-df1753344aa3}, !- Handle
  Run Period 1,                           !- Name
  1,                                      !- Begin Month
  10,                                     !- Begin Day of Month
  12,                                     !- End Month
  12,                                     !- End Day of Month
  ,                                       !- Use Weather File Holidays and Special Days
  ,                                       !- Use Weather File Daylight Saving Period
  ,                                       !- Apply Weekend Holiday Rule
  ,                                       !- Use Weather File Rain Indicators
  ,                                       !- Use Weather File Snow Indicators
  ;                                       !- Number of Times Runperiod to be Repeated

OS:Building,
  {bf305633-c5a1-4881-9edf-ca5e1a8e1274}, !- Handle
  999999,                                 !- Name
  ,                                       !- Building Sector Type
  ,                                       !- North Axis {deg}
  ,                                       !- Nominal Floor to Floor Height {m}
  ,                                       !- Space Type Name
  ,                                       !- Default Construction Set Name
  {25b70705-a03f-4c01-acbc-41bc9eed2f0d}, !- Default Schedule Set Name
  ,                                       !- Standards Number of Stories
  ,                                       !- Standards Number of Above Ground Stories
  Office;                                 !- Standards Building Type

OS:LifeCycleCost:Parameters,
  {231cf8a0-f0e7-4251-a99f-11f0d464e661}, !- Handle
  FEMP,                                   !- Analysis Type
  ,                                       !- Discounting Convention
  ,                                       !- Inflation Approach
  ,                                       !- Real Discount Rate
  ,                                       !- Nominal Discount Rate
  ,                                       !- Inflation
  ,                                       !- Base Date Month
  ,                                       !- Base Date Year
  ,                                       !- Service Date Month
  ,                                       !- Service Date Year
  ,                                       !- Length of Study Period in Years
  ,                                       !- Tax Rate
  ,                                       !- Depreciation Method
  Yes;                                    !- Use NIST Fuel Escalation Rates

OS:Facility,
  {3ba8e45b-b833-44eb-a723-ea6c3946dc96}; !- Handle

OS:UtilityBill,
  {6a79f08e-ec1b-4c01-93f4-7f535274cf20}, !- Handle
  Electric Bill,                          !- Name
  Electricity,                            !- Fuel Type
  ,                                       !- Meter Install Location
  ,                                       !- Meter Specific Install Location
  ,                                       !- Meter End Use Category
  ,                                       !- Meter Specific End Use
  kWh,                                    !- Consumption Unit
  ,                                       !- Consumption Unit Conversion Factor
  kW,                                     !- Peak Demand Unit
  ,                                       !- Timesteps in Peak Demand Window
  1,                                      !- Billing Period Begin Month 1
  10,                                     !- Billing Period Begin Day of Month 1
  2013,                                   !- Billing Period Begin Year 1
  34,                                     !- Number of Days in Billing Period 1
  148000,                                 !- Billing Period Consumption 1
  ,                                       !- Billing Period Peak Demand 1
  ,                                       !- Billing Period Total Cost 1
  2,                                      !- Billing Period Begin Month 2
  13,                                     !- Billing Period Begin Day of Month 2
  2013,                                   !- Billing Period Begin Year 2
  28,                                     !- Number of Days in Billing Period 2
  112000,                                 !- Billing Period Consumption 2
  ,                                       !- Billing Period Peak Demand 2
  ,                                       !- Billing Period Total Cost 2
  3,                                      !- Billing Period Begin Month 3
  13,                                     !- Billing Period Begin Day of Month 3
  2013,                                   !- Billing Period Begin Year 3
  30,                                     !- Number of Days in Billing Period 3
  116000,                                 !- Billing Period Consumption 3
  ,                                       !- Billing Period Peak Demand 3
  ,                                       !- Billing Period Total Cost 3
  4,                                      !- Billing Period Begin Month 4
  12,                                     !- Billing Period Begin Day of Month 4
  2013,                                   !- Billing Period Begin Year 4
  28,                                     !- Number of Days in Billing Period 4
  112000,                                 !- Billing Period Consumption 4
  ,                                       !- Billing Period Peak Demand 4
  ,                                       !- Billing Period Total Cost 4
  5,                                      !- Billing Period Begin Month 5
  10,                                     !- Billing Period Begin Day of Month 5
  2013,                                   !- Billing Period Begin Year 5
  33,                                     !- Number of Days in Billing Period 5
  148000,                                 !- Billing Period Consumption 5
  ,                                       !- Billing Period Peak Demand 5
  ,                                       !- Billing Period Total Cost 5
  6,                                      !- Billing Period Begin Month 6
  12,                                     !- Billing Period Begin Day of Month 6
  2013,                                   !- Billing Period Begin Year 6
  29,                                     !- Number of Days in Billing Period 6
  166000,                                 !- Billing Period Consumption 6
  ,                                       !- Billing Period Peak Demand 6
  ,                                       !- Billing Period Total Cost 6
  7,                                      !- Billing Period Begin Month 7
  11,                                     !- Billing Period Begin Day of Month 7
  2013,                                   !- Billing Period Begin Year 7
  32,                                     !- Number of Days in Billing Period 7
  178000,                                 !- Billing Period Consumption 7
  ,                                       !- Billing Period Peak Demand 7
  ,                                       !- Billing Period Total Cost 7
  8,                                      !- Billing Period Begin Month 8
  12,                                     !- Billing Period Begin Day of Month 8
  2013,                                   !- Billing Period Begin Year 8
  31,                                     !- Number of Days in Billing Period 8
  168000,                                 !- Billing Period Consumption 8
  ,                                       !- Billing Period Peak Demand 8
  ,                                       !- Billing Period Total Cost 8
  9,                                      !- Billing Period Begin Month 9
  12,                                     !- Billing Period Begin Day of Month 9
  2013,                                   !- Billing Period Begin Year 9
  28,                                     !- Number of Days in Billing Period 9
  130000,                                 !- Billing Period Consumption 9
  ,                                       !- Billing Period Peak Demand 9
  ,                                       !- Billing Period Total Cost 9
  10,                                     !- Billing Period Begin Month 10
  10,                                     !- Billing Period Begin Day of Month 10
  2013,                                   !- Billing Period Begin Year 10
  29,                                     !- Number of Days in Billing Period 10
  120000,                                 !- Billing Period Consumption 10
  ,                                       !- Billing Period Peak Demand 10
  ,                                       !- Billing Period Total Cost 10
  11,                                     !- Billing Period Begin Month 11
  8,                                      !- Billing Period Begin Day of Month 11
  2013,                                   !- Billing Period Begin Year 11
  32,                                     !- Number of Days in Billing Period 11
  130000,                                 !- Billing Period Consumption 11
  ,                                       !- Billing Period Peak Demand 11
  ;                                       !- Billing Period Total Cost 11

OS:UtilityBill,
  {f1ad626c-1b82-4f5d-9c50-79cb367a1c4a}, !- Handle
  Gas Bill,                               !- Name
  Gas,                                    !- Fuel Type
  ,                                       !- Meter Install Location
  ,                                       !- Meter Specific Install Location
  ,                                       !- Meter End Use Category
  ,                                       !- Meter Specific End Use
  therms,                                 !- Consumption Unit
  ,                                       !- Consumption Unit Conversion Factor
  ,                                       !- Peak Demand Unit
  ,                                       !- Timesteps in Peak Demand Window
  1,                                      !- Billing Period Begin Month 1
  15,                                     !- Billing Period Begin Day of Month 1
  2013,                                   !- Billing Period Begin Year 1
  27,                                     !- Number of Days in Billing Period 1
  4621,                                   !- Billing Period Consumption 1
  ,                                       !- Billing Period Peak Demand 1
  ,                                       !- Billing Period Total Cost 1
  2,                                      !- Billing Period Begin Month 2
  11,                                     !- Billing Period Begin Day of Month 2
  2013,                                   !- Billing Period Begin Year 2
  29,                                     !- Number of Days in Billing Period 2
  3152,                                   !- Billing Period Consumption 2
  ,                                       !- Billing Period Peak Demand 2
  ,                                       !- Billing Period Total Cost 2
  3,                                      !- Billing Period Begin Month 3
  12,                                     !- Billing Period Begin Day of Month 3
  2013,                                   !- Billing Period Begin Year 3
  30,                                     !- Number of Days in Billing Period 3
  2180,                                   !- Billing Period Consumption 3
  ,                                       !- Billing Period Peak Demand 3
  ,                                       !- Billing Period Total Cost 3
  4,                                      !- Billing Period Begin Month 4
  11,                                     !- Billing Period Begin Day of Month 4
  2013,                                   !- Billing Period Begin Year 4
  34,                                     !- Number of Days in Billing Period 4
  1271,                                   !- Billing Period Consumption 4
  ,                                       !- Billing Period Peak Demand 4
  ,                                       !- Billing Period Total Cost 4
  5,                                      !- Billing Period Begin Month 5
  15,                                     !- Billing Period Begin Day of Month 5
  2013,                                   !- Billing Period Begin Year 5
  28,                                     !- Number of Days in Billing Period 5
  655,                                    !- Billing Period Consumption 5
  ,                                       !- Billing Period Peak Demand 5
  ,                                       !- Billing Period Total Cost 5
  6,                                      !- Billing Period Begin Month 6
  12,                                     !- Billing Period Begin Day of Month 6
  2013,                                   !- Billing Period Begin Year 6
  35,                                     !- Number of Days in Billing Period 6
  439,                                    !- Billing Period Consumption 6
  ,                                       !- Billing Period Peak Demand 6
  ,                                       !- Billing Period Total Cost 6
  7,                                      !- Billing Period Begin Month 7
  17,                                     !- Billing Period Begin Day of Month 7
  2013,                                   !- Billing Period Begin Year 7
  29,                                     !- Number of Days in Billing Period 7
  225,                                    !- Billing Period Consumption 7
  ,                                       !- Billing Period Peak Demand 7
  ,                                       !- Billing Period Total Cost 7
  8,                                      !- Billing Period Begin Month 8
  15,                                     !- Billing Period Begin Day of Month 8
  2013,                                   !- Billing Period Begin Year 8
  32,                                     !- Number of Days in Billing Period 8
  414,                                    !- Billing Period Consumption 8
  ,                                       !- Billing Period Peak Demand 8
  ,                                       !- Billing Period Total Cost 8
  9,                                      !- Billing Period Begin Month 9
  16,                                     !- Billing Period Begin Day of Month 9
  2013,                                   !- Billing Period Begin Year 9
  28,                                     !- Number of Days in Billing Period 9
  794,                                    !- Billing Period Consumption 9
  ,                                       !- Billing Period Peak Demand 9
  ,                                       !- Billing Period Total Cost 9
  10,                                     !- Billing Period Begin Month 10
  14,                                     !- Billing Period Begin Day of Month 10
  2013,                                   !- Billing Period Begin Year 10
  25,                                     !- Number of Days in Billing Period 10
  1413,                                   !- Billing Period Consumption 10
  ,                                       !- Billing Period Peak Demand 10
  ,                                       !- Billing Period Total Cost 10
  11,                                     !- Billing Period Begin Month 11
  8,                                      !- Billing Period Begin Day of Month 11
  2013,                                   !- Billing Period Begin Year 11
  34,                                     !- Number of Days in Billing Period 11
  3512,                                   !- Billing Period Consumption 11
  ,                                       !- Billing Period Peak Demand 11
  ;                                       !- Billing Period Total Cost 11

OS:WeatherFile,
  {17d084c2-a4b2-4b33-b17e-1a34359ec408}, !- Handle
  Lawrence,                               !- City
  MA,                                     !- State Province Region
  USA,                                    !- Country
  Custom-109,                             !- Data Source
  109,                                    !- WMO Number
  42.72,                                  !- Latitude {deg}
  -71.12,                                 !- Longitude {deg}
  -5,                                     !- Time Zone {hr}
  45.4,                                   !- Elevation {m}
  file:///mnt/openstudio/analysis_bfce11e6-bee4-4569-a5cb-c7d101d7270e/weather/Lawrence109_2013CST.epw, !- Url
  DEF50A14;                               !- Checksum

OS:Site,
  {87217805-635d-4d6f-b21d-44254fcab348}, !- Handle
  Lawrence_MA_USA,                        !- Name
  42.72,                                  !- Latitude {deg}
  -71.12,                                 !- Longitude {deg}
  -5,                                     !- Time Zone {hr}
  45.4,                                   !- Elevation {m}
  ;                                       !- Terrain

OS:Site:GroundTemperature:BuildingSurface,
  {a7729b31-3ef5-4d2b-8623-2a799adf89d6}, !- Handle
  19.527,                                 !- January Ground Temperature {C}
  19.502,                                 !- February Ground Temperature {C}
  19.536,                                 !- March Ground Temperature {C}
  19.598,                                 !- April Ground Temperature {C}
  20.002,                                 !- May Ground Temperature {C}
  21.64,                                  !- June Ground Temperature {C}
  22.225,                                 !- July Ground Temperature {C}
  22.375,                                 !- August Ground Temperature {C}
  21.449,                                 !- September Ground Temperature {C}
  20.121,                                 !- October Ground Temperature {C}
  19.802,                                 !- November Ground Temperature {C}
  19.633;                                 !- December Ground Temperature {C}

OS:Site:WaterMainsTemperature,
  {5b3144e7-8950-48d2-92f4-b3e74907b770}, !- Handle
  Correlation,                            !- Calculation Method
  ,                                       !- Temperature Schedule Name
  10.55,                                  !- Annual Average Outdoor Air Temperature {C}
  26.4;                                   !- Maximum Difference In Monthly Average Outdoor Air Temperatures {deltaC}

OS:SizingPeriod:DesignDay,
  {652f9ac7-94be-41cd-b353-4cda150071a1}, !- Handle
  Boston Logan IntL Arpt Ann Clg .4% Condns WB=>MDB, !- Name
  30.2,                                   !- Maximum Dry-Bulb Temperature {C}
  8.4,                                    !- Daily Dry-Bulb Temperature Range {deltaC}
  24.6,                                   !- Humidity Indicating Conditions at Maximum Dry-Bulb {BasedOnField A3}
  101253,                                 !- Barometric Pressure {Pa}
  6.3,                                    !- Wind Speed {m/s}
  270,                                    !- Wind Direction {deg}
  0,                                      !- Sky Clearness
  0,                                      !- Rain Indicator
  0,                                      !- Snow Indicator
  21,                                     !- Day of Month
  7,                                      !- Month
  SummerDesignDay,                        !- Day Type
  0,                                      !- Daylight Saving Time Indicator
  Wetbulb,                                !- Humidity Indicating Type
  ,                                       !- Humidity Indicating Day Schedule Name
  DefaultMultipliers,                     !- Dry-Bulb Temperature Range Modifier Type
  ,                                       !- Dry-Bulb Temperature Range Modifier Schedule Name
  ASHRAETau,                              !- Solar Model Indicator
  ,                                       !- Beam Solar Day Schedule Name
  ,                                       !- Diffuse Solar Day Schedule Name
  0.488,                                  !- ASHRAE Taub {dimensionless}
  1.95;                                   !- ASHRAE Taud {dimensionless}

OS:SizingPeriod:DesignDay,
  {d78bb23e-000f-44a7-ae23-2b3e8fb7a604}, !- Handle
  Boston Logan IntL Arpt Ann Htg 99.6% Condns DB, !- Name
  -13.6,                                  !- Maximum Dry-Bulb Temperature {C}
  0,                                      !- Daily Dry-Bulb Temperature Range {deltaC}
  -13.6,                                  !- Humidity Indicating Conditions at Maximum Dry-Bulb {BasedOnField A3}
  101253,                                 !- Barometric Pressure {Pa}
  7.2,                                    !- Wind Speed {m/s}
  320,                                    !- Wind Direction {deg}
  0,                                      !- Sky Clearness
  0,                                      !- Rain Indicator
  0,                                      !- Snow Indicator
  21,                                     !- Day of Month
  1,                                      !- Month
  WinterDesignDay,                        !- Day Type
  0,                                      !- Daylight Saving Time Indicator
  Wetbulb,                                !- Humidity Indicating Type
  ,                                       !- Humidity Indicating Day Schedule Name
  DefaultMultipliers,                     !- Dry-Bulb Temperature Range Modifier Type
  ,                                       !- Dry-Bulb Temperature Range Modifier Schedule Name
  ASHRAEClearSky;                         !- Solar Model Indicator

OS:SizingPeriod:DesignDay,
  {5f955dc9-e3d9-4caf-bf0b-13c41139084d}, !- Handle
  Boston Logan IntL Arpt Ann Clg .4% Condns DB=>MWB, !- Name
  32.7,                                   !- Maximum Dry-Bulb Temperature {C}
  8.4,                                    !- Daily Dry-Bulb Temperature Range {deltaC}
  22.9,                                   !- Humidity Indicating Conditions at Maximum Dry-Bulb {BasedOnField A3}
  101253,                                 !- Barometric Pressure {Pa}
  6.3,                                    !- Wind Speed {m/s}
  270,                                    !- Wind Direction {deg}
  0,                                      !- Sky Clearness
  0,                                      !- Rain Indicator
  0,                                      !- Snow Indicator
  21,                                     !- Day of Month
  7,                                      !- Month
  SummerDesignDay,                        !- Day Type
  0,                                      !- Daylight Saving Time Indicator
  Wetbulb,                                !- Humidity Indicating Type
  ,                                       !- Humidity Indicating Day Schedule Name
  DefaultMultipliers,                     !- Dry-Bulb Temperature Range Modifier Type
  ,                                       !- Dry-Bulb Temperature Range Modifier Schedule Name
  ASHRAETau,                              !- Solar Model Indicator
  ,                                       !- Beam Solar Day Schedule Name
  ,                                       !- Diffuse Solar Day Schedule Name
  0.488,                                  !- ASHRAE Taub {dimensionless}
  1.95;                                   !- ASHRAE Taud {dimensionless}

OS:SpaceType,
  {ed68e8c7-ee36-430a-81a2-4f716f2bc1f6}, !- Handle
  Office|BlendA|DOE Ref 2004|ASHRAE 169-2006-5A, !- Name
  {126af1a6-f25b-479d-a49d-87956905dd57}, !- Default Construction Set Name
  ,                                       !- Default Schedule Set Name
  {733dc99e-880a-42ed-aca6-9466c21dda1b}, !- Group Rendering Name
  {918543a2-205f-4ab7-995d-82447565b2b8}, !- Design Specification Outdoor Air Object Name
  Office,                                 !- Standards Building Type
  BlendA;                                 !- Standards Space Type

OS:Rendering:Color,
  {733dc99e-880a-42ed-aca6-9466c21dda1b}, !- Handle
  Rendering Color 1,                      !- Name
  120,                                    !- Rendering Red Value
  230,                                    !- Rendering Green Value
  199;                                    !- Rendering Blue Value

OS:SpaceType,
  {bd07dd6b-c017-4a48-9a6b-b8f02bb9c598}, !- Handle
  Office|BlendB|DOE Ref 2004|ASHRAE 169-2006-5A, !- Name
  {126af1a6-f25b-479d-a49d-87956905dd57}, !- Default Construction Set Name
  ,                                       !- Default Schedule Set Name
  {d888c487-4603-4d7d-9407-8cfdf7067078}, !- Group Rendering Name
  {c35c9e7e-3776-4bdf-bfec-f7bdfea8452b}, !- Design Specification Outdoor Air Object Name
  Office,                                 !- Standards Building Type
  BlendB;                                 !- Standards Space Type

OS:Rendering:Color,
  {d888c487-4603-4d7d-9407-8cfdf7067078}, !- Handle
  Rendering Color 2,                      !- Name
  120,                                    !- Rendering Red Value
  149,                                    !- Rendering Green Value
  230;                                    !- Rendering Blue Value

OS:SpaceType,
  {25ab9a49-01f2-4aa1-82b4-94293ff9e196}, !- Handle