
OS:Version,
  {ea67f3b4-7114-44ee-9f9a-57f68078f129}, !- Handle
  1.5.5;                                  !- Version Identifier

OS:ClimateZones,
  {135edfab-17e7-40db-a436-27d385a8cd6d}, !- Handle
  ,                                       !- Active Institution
  ,                                       !- Active Year
  ASHRAE,                                 !- Climate Zone Institution Name 1
  ANSI/ASHRAE Standard 169,               !- Climate Zone Document Name 1
  2006,                                   !- Climate Zone Document Year 1
  ,                                       !- Climate Zone Value 1
  CEC,                                    !- Climate Zone Institution Name 2
  California Climate Zone Descriptions,   !- Climate Zone Document Name 2
  1995,                                   !- Climate Zone Document Year 2
  ;                                       !- Climate Zone Value 2

OS:YearDescription,
  {513d8dda-86cb-442a-b01c-1f7f0e0ac70e}; !- Handle

OS:RadianceParameters,
  {270a96f1-3c86-4b75-a667-cdf22790e2c8}, !- Handle
  1,                                      !- Accumulated Rays per Record
  0,                                      !- Direct Threshold
  1,                                      !- Direct Certainty
  1,                                      !- Direct Jitter
  1,                                      !- Direct Pretest
  6,                                      !- Ambient Bounces VMX
  2,                                      !- Ambient Bounces DMX
  4050,                                   !- Ambient Divisions VMX
  512,                                    !- Ambient Divisions DMX
  256,                                    !- Ambient Supersamples
  0.001,                                  !- Limit Weight VMX
  0.001,                                  !- Limit Weight DMX
  500,                                    !- Klems Sampling Density
  146;                                    !- Sky Discretization Resolution

OS:SimulationControl,
  {2c487a4c-bac9-4ac5-b669-1e49d9da7c2b}, !- Handle
  ,                                       !- Do Zone Sizing Calculation
  ,                                       !- Do System Sizing Calculation
  ,                                       !- Do Plant Sizing Calculation
  No,                                     !- Run Simulation for Sizing Periods
  ,                                       !- Run Simulation for Weather File Run Periods
  0.04,                                   !- Loads Convergence Tolerance Value
  ,                                       !- Temperature Convergence Tolerance Value {deltaC}
  ,                                       !- Solar Distribution
  ,                                       !- Maximum Number of Warmup Days
  2;                                      !- Minimum Number of Warmup Days

OS:Sizing:Parameters,
  {dde5af6f-7923-4600-a28a-7556673a0266}, !- Handle
  1.25,                                   !- Heating Sizing Factor
  1.15;                                   !- Cooling Sizing Factor

OS:ProgramControl,
  {05027a99-f2b3-4aeb-afc6-1425fbb4371d}; !- Handle

OS:Timestep,
  {4ebc9f1e-4707-402e-9844-67eb1ffbd522}, !- Handle
  2;                                      !- Number of Timesteps per Hour

OS:OutputControl:ReportingTolerances,
  {65797aa2-06a9-45fe-b69d-bc6e060399d3}; !- Handle

OS:ConvergenceLimits,
  {9fc11aba-8822-4f3d-970c-46391ba4040d}; !- Handle

OS:ShadowCalculation,
  {ca758bea-4416-4626-9bba-3d8795c79bd6}, !- Handle
  7,                                      !- Calculation Frequency
  15000;                                  !- Maximum Figures in Shadow Overlap Calculations

OS:SurfaceConvectionAlgorithm:Inside,
  {aaabfc36-718a-4ab0-b622-f186ebb45230}, !- Handle
  TARP;                                   !- Algorithm

OS:SurfaceConvectionAlgorithm:Outside,
  {9a0a9f6f-4bbd-4b12-a121-9492a1fcd7d6}, !- Handle
  DOE-2;                                  !- Algorithm

OS:HeatBalanceAlgorithm,
  {9d93e563-e1e0-46d7-9e39-d1c8aceb7212}, !- Handle
  ConductionTransferFunction,             !- Algorithm
  200;                                    !- Surface Temperature Upper Limit {F}

OS:ZoneAirHeatBalanceAlgorithm,
  {8520d93e-310f-4696-9bcd-36228bfdd743}, !- Handle
  AnalyticalSolution;                     !- Algorithm

OS:ZoneAirContaminantBalance,
  {eb5fc3ae-fb22-4160-8fcb-3e3b22b000d3}; !- Handle

OS:ZoneCapacitanceMultiplier:ResearchSpecial,
  {4020ce4f-5a7a-4849-8028-8305d7b751b1}, !- Handle
  ,                                       !- Temperature Capacity Multiplier
  ,                                       !- Humidity Capacity Multiplier
  ;                                       !- Carbon Dioxide Capacity Multiplier

OS:RunPeriod,
  {28df894d-6af9-4fb8-8f56-df1753344aa3}, !- Handle
  Run Period 1,                           !- Name
  1,                                      !- Begin Month
  1,                                      !- Begin Day of Month
  12,                                     !- End Month
  31,                                     !- End Day of Month
  ,                                       !- Use Weather File Holidays and Special Days
  ,                                       !- Use Weather File Daylight Saving Period
  ,                                       !- Apply Weekend Holiday Rule
  ,                                       !- Use Weather File Rain Indicators
  ,                                       !- Use Weather File Snow Indicators
  ;                                       !- Number of Times Runperiod to be Repeated

OS:Building,
  {bf305633-c5a1-4881-9edf-ca5e1a8e1274}, !- Handle
  Building 1,                             !- Name
  ,                                       !- Building Sector Type
  ,                                       !- North Axis {deg}
  ,                                       !- Nominal Floor to Floor Height {m}
  ,                                       !- Space Type Name
  ,                                       !- Default Construction Set Name
  {754c36c3-617c-4c4e-874d-bdaa841622f4}, !- Default Schedule Set Name
  ,                                       !- Standards Number of Stories
  ,                                       !- Standards Number of Above Ground Stories
  FullServiceRestaurant;                  !- Standards Building Type

OS:LifeCycleCost:Parameters,
  {231cf8a0-f0e7-4251-a99f-11f0d464e661}, !- Handle
  FEMP,                                   !- Analysis Type
  ,                                       !- Discounting Convention
  ,                                       !- Inflation Approach
  ,                                       !- Real Discount Rate
  ,                                       !- Nominal Discount Rate
  ,                                       !- Inflation
  ,                                       !- Base Date Month
  ,                                       !- Base Date Year
  ,                                       !- Service Date Month
  ,                                       !- Service Date Year
  ,                                       !- Length of Study Period in Years
  ,                                       !- Tax Rate
  ,                                       !- Depreciation Method
  Yes;                                    !- Use NIST Fuel Escalation Rates

OS:Facility,
  {3ba8e45b-b833-44eb-a723-ea6c3946dc96}; !- Handle

OS:SpaceType,
  {6a69bab4-d8fa-476a-84e8-7789aa8d464e}, !- Handle
  FullServiceRestaurant|Dining|DOE Ref 1980-2004|ASHRAE 169-2006-5A, !- Name
  {f24d7e72-955c-48a1-b550-a194ef304a76}, !- Default Construction Set Name
  {52ea7bb4-ecf2-4774-a724-3de516e9545a}, !- Default Schedule Set Name
  {c5ff4f29-844e-402c-a808-d80dfa2933c5}, !- Group Rendering Name
  {1cf62864-db22-4270-abc9-ce1798ea03fa}, !- Design Specification Outdoor Air Object Name
  FullServiceRestaurant,                  !- Standards Building Type
  Dining;                                 !- Standards Space Type

OS:Rendering:Color,
  {c5ff4f29-844e-402c-a808-d80dfa2933c5}, !- Handle
  Rendering Color 1,                      !- Name
  31,                                     !- Rendering Red Value
  169,                                    !- Rendering Green Value
  34;                                     !- Rendering Blue Value

OS:SpaceType,
  {2d0adb2b-aa40-45c3-9560-f177b4ba5ca5}, !- Handle
  FullServiceRestaurant|Kitchen|DOE Ref 1980-2004|ASHRAE 169-2006-5A, !- Name
  {f24d7e72-955c-48a1-b550-a194ef304a76}, !- Default Construction Set Name
  {cc547186-211e-420d-a1de-6526300d7048}, !- Default Schedule Set Name
  {c30ca496-1dd9-4fba-b868-4f3a4d2911fc}, !- Group Rendering Name
  {604518f4-f78d-4864-ad07-ec9a7d669d0b}, !- Design Specification Outdoor Air Object Name
  FullServiceRestaurant,                  !- Standards Building Type
  Kitchen;                                !- Standards Space Type

OS:Rendering:Color,
  {c30ca496-1dd9-4fba-b868-4f3a4d2911fc}, !- Handle
  Rendering Color 2,                      !- Name
  78,                                     !- Rendering Red Value
  222,                                    !- Rendering Green Value
  133;                                    !- Rendering Blue Value

OS:Schedule:Ruleset,
  {3aadc339-3dfa-4ec5-ac48-be422e757979}, !- Handle
  0700|2300|FullServiceRestaurant|default|hoo, !- Name
  {ca862ef3-c516-4af2-903f-2563b7d22e1a}, !- Schedule Type Limits Name
  {1bccf26e-569d-431d-ad38-19d50dd3d1ca}, !- Default Day Schedule Name
  {138c38b7-eeb5-4f17-af85-fbb26dc6533f}, !- Summer Design Day Schedule Name
  {98306d86-b291-4c99-8cb5-772e2dde7797}; !- Winter Design Day Schedule Name

OS:Schedule:Day,
  {1bccf26e-569d-431d-ad38-19d50dd3d1ca}, !- Handle
  0700|2300|FullServiceRestaurant|default|hoo Schedule Week Day, !- Name
  {ca862ef3-c516-4af2-903f-2563b7d22e1a}, !- Schedule Type Limits Name
  ,                                       !- Interpolate to Timestep
  7,                                      !- Hour 1
  0,                                      !- Minute 1
  0,                                      !- Value Until Time 1
  23,                                     !- Hour 2
  0,                                      !- Minute 2
  1,                                      !- Value Until Time 2
  24,                                     !- Hour 3
  0,                                      !- Minute 3
  0;                                      !- Value Until Time 3

OS:Schedule:Day,
  {0de51d50-e9f8-4046-a0d0-03f4c45f6d5b}, !- Handle
  Schedule Day 2,                         !- Name
  ,                                       !- Schedule Type Limits Name
  ,                                       !- Interpolate to Timestep
  24,                                     !- Hour 1
  0,                                      !- Minute 1
  0;                                      !- Value Until Time 1

OS:Schedule:Day,
  {98306d86-b291-4c99-8cb5-772e2dde7797}, !- Handle
  0700|2300|FullServiceRestaurant|default|hoo Winter Design Day, !- Name
  {ca862ef3-c516-4af2-903f-2563b7d22e1a}, !- Schedule Type Limits Name
  ,                                       !- Interpolate to Timestep
  24,                                     !- Hour 1
  0,                                      !- Minute 1
  0;                                      !- Value Until Time 1

OS:Schedule:Day,
  {c40cf86f-693c-4a90-b895-72277080e996}, !- Handle
  Schedule Day 3,                         !- Name
  ,                                       !- Schedule Type Limits Name
  ,                                       !- Interpolate to Timestep
  24,                                     !- Hour 1
  0,                                      !- Minute 1
  0;                                      !- Value Until Time 1

OS:Schedule:Day,
  {138c38b7-eeb5-4f17-af85-fbb26dc6533f}, !- Handle
  0700|2300|FullServiceRestaurant|default|hoo Summer Design Day, !- Name
  {ca862ef3-c516-4af2-903f-2563b7d22e1a}, !- Schedule Type Limits Name
  ,                                       !- Interpolate to Timestep
  24,                                     !- Hour 1
  0,                                      !- Minute 1
  1;                                      !- Value Until Time 1

OS:DefaultScheduleSet,
  {754c36c3-617c-4c4e-874d-bdaa841622f4}, !- Handle
  Building Hours of Operation,            !- Name
  {3aadc339-3dfa-4ec5-ac48-be422e757979}, !- Hours of Operation Schedule Name
  ,                                       !- Number of People Schedule Name
  ,                                       !- People Activity Level Schedule Name
  ,                                       !- Lighting Schedule Name
  ,                                       !- Electric Equipment Schedule Name
  ,                                       !- Gas Equipment Schedule Name
  ,                                       !- Hot Water Equipment Schedule Name
  ,                                       !- Infiltration Schedule Name
  ,                                       !- Steam Equipment Schedule Name
  ;                                       !- Other Equipment Schedule Name

OS:ScheduleTypeLimits,
  {ca862ef3-c516-4af2-903f-2563b7d22e1a}, !- Handle
  OnOff,                                  !- Name
  0,                                      !- Lower Limit Value {BasedOnField A4}
  1,                                      !- Upper Limit Value {BasedOnField A4}
  Discrete,                               !- Numeric Type
  Availability;                           !- Unit Type

OS:Schedule:Ruleset,
  {01ba028e-44b0-49cd-ba1c-1c2b8c8377da}, !- Handle
  0700|2300|FullServiceRestaurant|default|lighting, !- Name
  {fb371729-3936-48bf-bcb9-05d90bc78b9f}, !- Schedule Type Limits Name
  {4918a72c-5789-4e7b-9625-17f598d9f521}, !- Default Day Schedule Name
  {e0953559-c475-46d3-b6ed-ece0291b67f8}, !- Summer Design Day Schedule Name
  {8656e028-d4ba-45f1-b2ee-82d0d3a075b5}; !- Winter Design Day Schedule Name

OS:ScheduleTypeLimits,
  {fb371729-3936-48bf-bcb9-05d90bc78b9f}, !- Handle
  Lights Schedule Type Limits,            !- Name
  0,                                      !- Lower Limit Value {BasedOnField A4}
  1,                                      !- Upper Limit Value {BasedOnField A4}
  Continuous,                             !- Numeric Type
  Dimensionless;                          !- Unit Type

OS:Schedule:Day,
  {4918a72c-5789-4e7b-9625-17f598d9f521}, !- Handle
  0700|2300|FullServiceRestaurant|default|lighting |default, !- Name
  {fb371729-3936-48bf-bcb9-05d90bc78b9f}, !- Schedule Type Limits Name
  ,                                       !- Interpolate to Timestep
  1,                                      !- Hour 1
  0,                                      !- Minute 1
  0.45,                                   !- Value Until Time 1
  5,                                      !- Hour 2
  0,                                      !- Minute 2
  0.15,                                   !- Value Until Time 2
  6,                                      !- Hour 3
  0,                                      !- Minute 3
  0.45,                                   !- Value Until Time 3
  24,                                     !- Hour 4
  0,                                      !- Minute 4
  0.9;                                    !- Value Until Time 4

OS:Schedule:Day,
  {e0953559-c475-46d3-b6ed-ece0291b67f8}, !- Handle
  0700|2300|FullServiceRestaurant|default|lighting Summer Design Day, !- Name
  {fb371729-3936-48bf-bcb9-05d90bc78b9f}, !- Schedule Type Limits Name
  ,                                       !- Interpolate to Timestep
  1,                                      !- Hour 1
  0,                                      !- Minute 1
  1,                                      !- Value Until Time 1
  5,                                      !- Hour 2
  0,                                      !- Minute 2
  0.15,                                   !- Value Until Time 2
  24,                                     !- Hour 3
  0,                                      !- Minute 3
  1;                                      !- Value Until Time 3

OS:Schedule:Day,
  {8656e028-d4ba-45f1-b2ee-82d0d3a075b5}, !- Handle
  0700|2300|FullServiceRestaurant|default|lighting Winter Design Day, !- Name
  {fb371729-3936-48bf-bcb9-05d90bc78b9f}, !- Schedule Type Limits Name
  ,                                       !- Interpolate to Timestep
  24,                                     !- Hour 1
  0,                                      !- Minute 1
  0.15;                                   !- Value Until Time 1

OS:Schedule:Ruleset,
  {2a044b41-a0b1-4034-88e3-d113549e01c2}, !- Handle
  0700|2300|FullServiceRestaurant|default|rh, !- Name
  {b883e9fd-ac57-467b-8842-69bba7d4c7ed}, !- Schedule Type Limits Name
  {ce965a56-9856-405d-a712-5ac1f2553fb6}, !- Default Day Schedule Name
  {0012834e-10be-41c7-b229-ef1411ed4ce9}, !- Summer Design Day Schedule Name
  {9eeb235f-b391-4c24-8986-d8645791d5b6}; !- Winter Design Day Schedule Name

OS:ScheduleTypeLimits,
  {b883e9fd-ac57-467b-8842-69bba7d4c7ed}, !- Handle
  Dimensionless Schedule Type Limits,     !- Name
  ,                                       !- Lower Limit Value {BasedOnField A4}
  ,                                       !- Upper Limit Value {BasedOnField A4}
  Continuous,                             !- Numeric Type
  Dimensionless;                          !- Unit Type

OS:Schedule:Day,
  {ce965a56-9856-405d-a712-5ac1f2553fb6}, !- Handle
  0700|2300|FullServiceRestaurant|default|rh |default, !- Name
  {b883e9fd-ac57-467b-8842-69bba7d4c7ed}, !- Schedule Type Limits Name
  ,                                       !- Interpolate to Timestep
  24,                                     !- Hour 1
  0,                                      !- Minute 1
  50;                                     !- Value Until Time 1

OS:Schedule:Day,
  {0012834e-10be-41c7-b229-ef1411ed4ce9}, !- Handle
  0700|2300|FullServiceRestaurant|default|rh Summer Design Day, !- Name
  {b883e9fd-ac57-467b-8842-69bba7d4c7ed}, !- Schedule Type Limits Name
  ,                                       !- Interpolate to Timestep
  24,                                     !- Hour 1
  0,                                      !- Minute 1
  50;                                     !- Value Until Time 1

OS:Schedule:Day,
  {9eeb235f-b391-4c24-8986-d8645791d5b6}, !- Handle
  0700|2300|FullServiceRestaurant|default|rh Winter Design Day, !- Name
  {b883e9fd-ac57-467b-8842-69bba7d4c7ed}, !- Schedule Type Limits Name
  ,                                       !- Interpolate to Timestep
  24,                                     !- Hour 1
  0,                                      !- Minute 1
  50;                                     !- Value Until Time 1

OS:Schedule:Ruleset,
  {77e719c9-37fb-488a-9d5a-ac8409461aaf}, !- Handle
  0700|2300|FullServiceRestaurant|default|clg_setpoint, !- Name
  {432b8690-8e32-489d-8dea-6daac78b524d}, !- Schedule Type Limits Name
  {3b9232da-ae88-4e65-9f87-1f49e6bad2b5}, !- Default Day Schedule Name
  {84bd17f5-21dc-4027-a4cb-deabd9d7afd8}, !- Summer Design Day Schedule Name
  {e75c3cc9-f78e-46ce-9c4e-dda5d734e358}; !- Winter Design Day Schedule Name

OS:ScheduleTypeLimits,
  {432b8690-8e32-489d-8dea-6daac78b524d}, !- Handle
  Thermostat Cooling Setpoint Schedule Type Limits, !- Name
  0,                                      !- Lower Limit Value {BasedOnField A4}
  100,                                    !- Upper Limit Value {BasedOnField A4}
  Continuous,                             !- Numeric Type
  Temperature;                            !- Unit Type

OS:Schedule:Day,
  {3b9232da-ae88-4e65-9f87-1f49e6bad2b5}, !- Handle
  0700|2300|FullServiceRestaurant|default|clg_setpoint |default, !- Name
  {432b8690-8e32-489d-8dea-6daac78b524d}, !- Schedule Type Limits Name
  ,                                       !- Interpolate to Timestep
  1,                                      !- Hour 1
  0,                                      !- Minute 1
  24.0000000000001,                       !- Value Until Time 1
  5,                                      !- Hour 2
  0,                                      !- Minute 2
  30.0000000000001,                       !- Value Until Time 2
  24,                                     !- Hour 3
  0,                                      !- Minute 3
  24.0000000000001;                       !- Value Until Time 3

OS:Schedule:Day,
  {84bd17f5-21dc-4027-a4cb-deabd9d7afd8}, !- Handle
  0700|2300|FullServiceRestaurant|default|clg_setpoint Summer Design Day, !- Name
  {432b8690-8e32-489d-8dea-6daac78b524d}, !- Schedule Type Limits Name
  ,                                       !- Interpolate to Timestep
  24,                                     !- Hour 1
  0,                                      !- Minute 1
  30.0000000000001;                       !- Value Until Time 1

OS:Schedule:Day,
  {e75c3cc9-f78e-46ce-9c4e-dda5d734e358}, !- Handle
  0700|2300|FullServiceRestaurant|default|clg_setpoint Winter Design Day, !- Name
  {432b8690-8e32-489d-8dea-6daac78b524d}, !- Schedule Type Limits Name
  ,                                       !- Interpolate to Timestep
  1,                                      !- Hour 1
  0,                                      !- Minute 1
  24.0000000000001,                       !- Value Until Time 1
  5,                                      !- Hour 2
  0,                                      !- Minute 2
  30.0000000000001,                       !- Value Until Time 2
  24,                                     !- Hour 3
  0,                                      !- Minute 3
  24.0000000000001;                       !- Value Until Time 3

OS:Schedule:Ruleset,
  {daf38844-4ad4-4c71-ac15-60b0106d203a}, !- Handle
  0700|2300|FullServiceRestaurant|default|air_velocity, !- Name
  {b883e9fd-ac57-467b-8842-69bba7d4c7ed}, !- Schedule Type Limits Name
  {5ed91eeb-2564-425b-854d-45837e3f7134}, !- Default Day Schedule Name
  {b97d5a36-aed2-4b11-8c35-f763d765e677}, !- Summer Design Day Schedule Name
  {374e8949-0d31-40d3-b448-0701069f3ca6}; !- Winter Design Day Schedule Name

OS:Schedule:Day,
  {5ed91eeb-2564-425b-854d-45837e3f7134}, !- Handle
  0700|2300|FullServiceRestaurant|default|air_velocity |default, !- Name
  {b883e9fd-ac57-467b-8842-69bba7d4c7ed}, !- Schedule Type Limits Name
  ,                                       !- Interpolate to Timestep
  24,                                     !- Hour 1
  0,                                      !- Minute 1
  0.200152;                               !- Value Until Time 1

OS:Schedule:Day,
  {b97d5a36-aed2-4b11-8c35-f763d765e677}, !- Handle
  0700|2300|FullServiceRestaurant|default|air_velocity Summer Design Day, !- Name
  {b883e9fd-ac57-467b-8842-69bba7d4c7ed}, !- Schedule Type Limits Name
  ,                                       !- Interpolate to Timestep
  24,                                     !- Hour 1
  0,                                      !- Minute 1
  0.200152;                               !- Value Until Time 1

OS:Schedule:Day,
  {374e8949-0d31-40d3-b448-0701069f3ca6}, !- Handle
  0700|2300|FullServiceRestaurant|default|air_velocity Winter Design Day, !- Name
  {b883e9fd-ac57-467b-8842-69bba7d4c7ed}, !- Schedule Type Limits Name
  ,                                       !- Interpolate to Timestep
  24,                                     !- Hour 1
  0,                                      !- Minute 1
  0.200152;                               !- Value Until Time 1

OS:Schedule:Ruleset,
  {56f6681b-d2e6-433b-8b3b-b8ca1349f989}, !- Handle
  0700|2300|FullServiceRestaurant|default|clothing, !- Name
  {b883e9fd-ac57-467b-8842-69bba7d4c7ed}, !- Schedule Type Limits Name
  {e8885ec8-ae68-4bb3-ab4c-9c711e8d1758}, !- Default Day Schedule Name
  {a7b47926-8ba4-4ff4-bc12-8f600de99ff9}, !- Summer Design Day Schedule Name
  {93fa5845-4090-4ab3-a253-714f6137fa2e}; !- Winter Design Day Schedule Name

OS:Schedule:Day,
  {e8885ec8-ae68-4bb3-ab4c-9c711e8d1758}, !- Handle
  0700|2300|FullServiceRestaurant|default|clothing |default, !- Name
  {b883e9fd-ac57-467b-8842-69bba7d4c7ed}, !- Schedule Type Limits Name
  ,                                       !- Interpolate to Timestep
  24,                                     !- Hour 1
  0,                                      !- Minute 1
  1;                                      !- Value Until Time 1

OS:Schedule:Day,
  {a7b47926-8ba4-4ff4-bc12-8f600de99ff9}, !- Handle
  0700|2300|FullServiceRestaurant|default|clothing Summer Design Day, !- Name
  {b883e9fd-ac57-467b-8842-69bba7d4c7ed}, !- Schedule Type Limits Name
  ,                                       !- Interpolate to Timestep
  24,                                     !- Hour 1
  0,                                      !- Minute 1
  1;                                      !- Value Until Time 1

OS:Schedule:Day,
  {93fa5845-4090-4ab3-a253-714f6137fa2e}, !- Handle
  0700|2300|FullServiceRestaurant|default|clothing Winter Design Day, !- Name
  {b883e9fd-ac57-467b-8842-69bba7d4c7ed}, !- Schedule Type Limits Name
  ,                                       !- Interpolate to Timestep
  24,                                     !- Hour 1
  0,                                      !- Minute 1
  1;                                      !- Value Until Time 1

OS:Schedule:Rule,
  {f97fc6c0-1eb7-44a0-8957-99ebe9f978e3}, !- Handle
  0700|2300|FullServiceRestaurant|default|clothing |5/1-9/30|Mon/Tue/Wed/Thu/Fri/Sat/Sun Rule, !- Name
  {56f6681b-d2e6-433b-8b3b-b8ca1349f989}, !- Schedule Ruleset Name
  0,                                      !- Rule Order
  {96dbf1a1-b824-4d3c-9812-123f3d79e996}, !- Day Schedule Name
  Yes,                                    !- Apply Sunday
  Yes,                                    !- Apply Monday
  Yes,                                    !- Apply Tuesday
  Yes,                                    !- Apply Wednesday
  Yes,                                    !- Apply Thursday
  Yes,                                    !- Apply Friday
  Yes,                                    !- Apply Saturday
  ,                                       !- Apply Holiday
  DateRange,                              !- Date Specification Type
  5,                                      !- Start Month
  1,                                      !- Start Day
  9,                                      !- End Month
  30;                                     !- End Day

OS:Schedule:Day,
  {96dbf1a1-b824-4d3c-9812-123f3d79e996}, !- Handle
  0700|2300|FullServiceRestaurant|default|clothing |5/1-9/30|Mon/Tue/Wed/Thu/Fri/Sat/Sun, !- Name
  {b883e9fd-ac57-467b-8842-69bba7d4c7ed}, !- Schedule Type Limits Name
  ,                                       !- Interpolate to Timestep
  24,                                     !- Hour 1
  0,                                      !- Minute 1
  0.5;                                    !- Value Until Time 1

OS:Schedule:Rule,
  {e330006b-277f-45c5-b3fc-bfc946759a03}, !- Handle
  0700|2300|FullServiceRestaurant|default|clothing |10/1-12/31|Mon/Tue/Wed/Thu/Fri/Sat/Sun Rule, !- Name
  {56f6681b-d2e6-433b-8b3b-b8ca1349f989}, !- Schedule Ruleset Name
  1,                                      !- Rule Order
  {54cf4e63-388a-4f07-b8e0-c4d1a022d9c5}, !- Day Schedule Name
  Yes,                                    !- Apply Sunday
  Yes,                                    !- Apply Monday
  Yes,                                    !- Apply Tuesday
  Yes,                                    !- Apply Wednesday
  Yes,                                    !- Apply Thursday
  Yes,                                    !- Apply Friday
  Yes,                                    !- Apply Saturday
  ,                                       !- Apply Holiday
  DateRange,                              !- Date Specification Type
  10,                                     !- Start Month
  1,                                      !- Start Day
  12,                                     !- End Month
  31;                                     !- End Day

OS:Schedule:Day,
  {54cf4e63-388a-4f07-b8e0-c4d1a022d9c5}, !- Handle
  0700|2300|FullServiceRestaurant|default|clothing |10/1-12/31|Mon/Tue/Wed/Thu/Fri/Sat/Sun, !- Name
  {b883e9fd-ac57-467b-8842-69bba7d4c7ed}, !- Schedule Type Limits Name
  ,                                       !- Interpolate to Timestep
  24,                                     !- Hour 1
  0,                                      !- Minute 1
  1;                                      !- Value Until Time 1

OS:Schedule:Ruleset,
  {3bbe51b5-a826-4de0-b8a3-12c6eecac304}, !- Handle
  0700|2300|FullServiceRestaurant|default|occ, !- Name
  {09ac74be-9187-47b0-a5b4-1fe44f1750dc}, !- Schedule Type Limits Name
  {54aed378-4021-4b48-9804-c9d53eac69ec}, !- Default Day Schedule Name
  {02962857-4c8c-4844-9dad-dd0427ecc0c3}, !- Summer Design Day Schedule Name
  {4e558ded-f40f-4ea3-aef3-3fd5b77618dd}; !- Winter Design Day Schedule Name

OS:ScheduleTypeLimits,
  {09ac74be-9187-47b0-a5b4-1fe44f1750dc}, !- Handle
  Occupancy Schedule Type Limits,         !- Name
  0,                                      !- Lower Limit Value {BasedOnField A4}
  1,                                      !- Upper Limit Value {BasedOnField A4}
  Continuous,                             !- Numeric Type
  Dimensionless;                          !- Unit Type

OS:Schedule:Day,
  {54aed378-4021-4b48-9804-c9d53eac69ec}, !- Handle
  0700|2300|FullServiceRestaurant|default|occ |default, !- Name
  {09ac74be-9187-47b0-a5b4-1fe44f1750dc}, !- Schedule Type Limits Name
  ,                                       !- Interpolate to Timestep
  1,                                      !- Hour 1
  0,                                      !- Minute 1
  0.05,                                   !- Value Until Time 1
  5,                                      !- Hour 2
  0,                                      !- Minute 2
  0,                                      !- Value Until Time 2
  6,                                      !- Hour 3
  0,                                      !- Minute 3
  0.05,                                   !- Value Until Time 3