
OS:Version,
  {40c6c637-7d1d-4204-8c14-f1a0391adcc5}, !- Handle
  1.5.5;                                  !- Version Identifier

OS:ClimateZones,
  {135edfab-17e7-40db-a436-27d385a8cd6d}, !- Handle
  ,                                       !- Active Institution
  ,                                       !- Active Year
  ASHRAE,                                 !- Climate Zone Institution Name 1
  ANSI/ASHRAE Standard 169,               !- Climate Zone Document Name 1
  2006,                                   !- Climate Zone Document Year 1
  ,                                       !- Climate Zone Value 1
  CEC,                                    !- Climate Zone Institution Name 2
  California Climate Zone Descriptions,   !- Climate Zone Document Name 2
  1995,                                   !- Climate Zone Document Year 2
  ;                                       !- Climate Zone Value 2

OS:YearDescription,
  {513d8dda-86cb-442a-b01c-1f7f0e0ac70e}; !- Handle

OS:RadianceParameters,
  {270a96f1-3c86-4b75-a667-cdf22790e2c8}, !- Handle
  1,                                      !- Accumulated Rays per Record
  0,                                      !- Direct Threshold
  1,                                      !- Direct Certainty
  1,                                      !- Direct Jitter
  1,                                      !- Direct Pretest
  6,                                      !- Ambient Bounces VMX
  2,                                      !- Ambient Bounces DMX
  4050,                                   !- Ambient Divisions VMX
  512,                                    !- Ambient Divisions DMX
  256,                                    !- Ambient Supersamples
  0.001,                                  !- Limit Weight VMX
  0.001,                                  !- Limit Weight DMX
  500,                                    !- Klems Sampling Density
  146;                                    !- Sky Discretization Resolution

OS:SimulationControl,
  {2c487a4c-bac9-4ac5-b669-1e49d9da7c2b}, !- Handle
  ,                                       !- Do Zone Sizing Calculation
  ,                                       !- Do System Sizing Calculation
  ,                                       !- Do Plant Sizing Calculation
  No,                                     !- Run Simulation for Sizing Periods
  ,                                       !- Run Simulation for Weather File Run Periods
  0.04,                                   !- Loads Convergence Tolerance Value
  ,                                       !- Temperature Convergence Tolerance Value {deltaC}
  ,                                       !- Solar Distribution
  ,                                       !- Maximum Number of Warmup Days
  2;                                      !- Minimum Number of Warmup Days

OS:Sizing:Parameters,
  {dde5af6f-7923-4600-a28a-7556673a0266}, !- Handle
  1.25,                                   !- Heating Sizing Factor
  1.15;                                   !- Cooling Sizing Factor

OS:ProgramControl,
  {05027a99-f2b3-4aeb-afc6-1425fbb4371d}; !- Handle

OS:Timestep,
  {4ebc9f1e-4707-402e-9844-67eb1ffbd522}, !- Handle
  2;                                      !- Number of Timesteps per Hour

OS:OutputControl:ReportingTolerances,
  {65797aa2-06a9-45fe-b69d-bc6e060399d3}; !- Handle

OS:ConvergenceLimits,
  {9fc11aba-8822-4f3d-970c-46391ba4040d}; !- Handle

OS:ShadowCalculation,
  {ca758bea-4416-4626-9bba-3d8795c79bd6}, !- Handle
  7,                                      !- Calculation Frequency
  15000;                                  !- Maximum Figures in Shadow Overlap Calculations

OS:SurfaceConvectionAlgorithm:Inside,
  {aaabfc36-718a-4ab0-b622-f186ebb45230}, !- Handle
  TARP;                                   !- Algorithm

OS:SurfaceConvectionAlgorithm:Outside,
  {9a0a9f6f-4bbd-4b12-a121-9492a1fcd7d6}, !- Handle
  DOE-2;                                  !- Algorithm

OS:HeatBalanceAlgorithm,
  {9d93e563-e1e0-46d7-9e39-d1c8aceb7212}, !- Handle
  ConductionTransferFunction,             !- Algorithm
  200;                                    !- Surface Temperature Upper Limit {F}

OS:ZoneAirHeatBalanceAlgorithm,
  {8520d93e-310f-4696-9bcd-36228bfdd743}, !- Handle
  AnalyticalSolution;                     !- Algorithm

OS:ZoneAirContaminantBalance,
  {eb5fc3ae-fb22-4160-8fcb-3e3b22b000d3}; !- Handle

OS:ZoneCapacitanceMultiplier:ResearchSpecial,
  {4020ce4f-5a7a-4849-8028-8305d7b751b1}, !- Handle
  ,                                       !- Temperature Capacity Multiplier
  ,                                       !- Humidity Capacity Multiplier
  ;                                       !- Carbon Dioxide Capacity Multiplier

OS:RunPeriod,
  {28df894d-6af9-4fb8-8f56-df1753344aa3}, !- Handle
  Run Period 1,                           !- Name
  1,                                      !- Begin Month
  1,                                      !- Begin Day of Month
  12,                                     !- End Month
  31,                                     !- End Day of Month
  ,                                       !- Use Weather File Holidays and Special Days
  ,                                       !- Use Weather File Daylight Saving Period
  ,                                       !- Apply Weekend Holiday Rule
  ,                                       !- Use Weather File Rain Indicators
  ,                                       !- Use Weather File Snow Indicators
  ;                                       !- Number of Times Runperiod to be Repeated

OS:Building,
  {bf305633-c5a1-4881-9edf-ca5e1a8e1274}, !- Handle
  Building 1,                             !- Name
  ,                                       !- Building Sector Type
  ,                                       !- North Axis {deg}
  ,                                       !- Nominal Floor to Floor Height {m}
  ,                                       !- Space Type Name
  ,                                       !- Default Construction Set Name
  {a21d52c7-4d82-478b-bd6c-a21a5137ee76}, !- Default Schedule Set Name
  ,                                       !- Standards Number of Stories
  ,                                       !- Standards Number of Above Ground Stories
  FullServiceRestaurant;                  !- Standards Building Type

OS:LifeCycleCost:Parameters,
  {231cf8a0-f0e7-4251-a99f-11f0d464e661}, !- Handle
  FEMP,                                   !- Analysis Type
  ,                                       !- Discounting Convention
  ,                                       !- Inflation Approach
  ,                                       !- Real Discount Rate
  ,                                       !- Nominal Discount Rate
  ,                                       !- Inflation
  ,                                       !- Base Date Month
  ,                                       !- Base Date Year
  ,                                       !- Service Date Month
  ,                                       !- Service Date Year
  ,                                       !- Length of Study Period in Years
  ,                                       !- Tax Rate
  ,                                       !- Depreciation Method
  Yes;                                    !- Use NIST Fuel Escalation Rates

OS:Facility,
  {3ba8e45b-b833-44eb-a723-ea6c3946dc96}; !- Handle

OS:SpaceType,
  {8a29d3c5-2832-489f-a6ce-168871cc81da}, !- Handle
  FullServiceRestaurant|Dining|DOE Ref Pre-1980|ASHRAE 169-2006-5A, !- Name
  {6fd32f5c-b854-4943-91fb-a18c6bd6b83a}, !- Default Construction Set Name
  {c74ee442-99b4-4604-b3ad-9dfe16906b4b}, !- Default Schedule Set Name
  {50ddba7c-89e4-4a3d-aa14-3287c50a84c3}, !- Group Rendering Name
  {b4bf3535-0922-445b-a606-72c90118747a}, !- Design Specification Outdoor Air Object Name
  FullServiceRestaurant,                  !- Standards Building Type
  Dining;                                 !- Standards Space Type

OS:Rendering:Color,
  {50ddba7c-89e4-4a3d-aa14-3287c50a84c3}, !- Handle
  Rendering Color 1,                      !- Name
  31,                                     !- Rendering Red Value
  169,                                    !- Rendering Green Value
  34;                                     !- Rendering Blue Value

OS:SpaceType,
  {5db0aeb6-2cd8-4c39-b83e-c4b92f9d747f}, !- Handle
  FullServiceRestaurant|Kitchen|DOE Ref Pre-1980|ASHRAE 169-2006-5A, !- Name
  {6fd32f5c-b854-4943-91fb-a18c6bd6b83a}, !- Default Construction Set Name
  {e2d90bb9-6c9b-4a2b-973a-9d6ca7e851cd}, !- Default Schedule Set Name
  {d07ffdd7-b7c7-47ce-bb5b-00f8df22840f}, !- Group Rendering Name
  {adaf16c4-94b1-46fb-b71d-a9021163cb62}, !- Design Specification Outdoor Air Object Name
  FullServiceRestaurant,                  !- Standards Building Type
  Kitchen;                                !- Standards Space Type

OS:Rendering:Color,
  {d07ffdd7-b7c7-47ce-bb5b-00f8df22840f}, !- Handle
  Rendering Color 2,                      !- Name
  78,                                     !- Rendering Red Value
  222,                                    !- Rendering Green Value
  133;                                    !- Rendering Blue Value

OS:Schedule:Ruleset,
  {02388397-e999-4474-8a82-eb25de2f6edc}, !- Handle
  0700|2300|FullServiceRestaurant|default|hoo, !- Name
  {a6f290c4-6632-4b0b-bfa3-d1aa1fa0edc0}, !- Schedule Type Limits Name
  {c34727fa-59a0-4c61-a2dd-38714e6b3186}, !- Default Day Schedule Name
  {0988d182-9832-4496-bfc5-dccbc4acc0ab}, !- Summer Design Day Schedule Name
  {4136a7af-7b19-46ea-88bf-7a982dc52122}; !- Winter Design Day Schedule Name

OS:Schedule:Day,
  {c34727fa-59a0-4c61-a2dd-38714e6b3186}, !- Handle
  0700|2300|FullServiceRestaurant|default|hoo Schedule Week Day, !- Name
  {a6f290c4-6632-4b0b-bfa3-d1aa1fa0edc0}, !- Schedule Type Limits Name
  ,                                       !- Interpolate to Timestep
  7,                                      !- Hour 1
  0,                                      !- Minute 1
  0,                                      !- Value Until Time 1
  23,                                     !- Hour 2
  0,                                      !- Minute 2
  1,                                      !- Value Until Time 2
  24,                                     !- Hour 3
  0,                                      !- Minute 3
  0;                                      !- Value Until Time 3

OS:Schedule:Day,
  {072a60c2-41d1-4565-9e74-ba1317504df0}, !- Handle
  Schedule Day 2,                         !- Name
  ,                                       !- Schedule Type Limits Name
  ,                                       !- Interpolate to Timestep
  24,                                     !- Hour 1
  0,                                      !- Minute 1
  0;                                      !- Value Until Time 1

OS:Schedule:Day,
  {4136a7af-7b19-46ea-88bf-7a982dc52122}, !- Handle
  0700|2300|FullServiceRestaurant|default|hoo Winter Design Day, !- Name
  {a6f290c4-6632-4b0b-bfa3-d1aa1fa0edc0}, !- Schedule Type Limits Name
  ,                                       !- Interpolate to Timestep
  24,                                     !- Hour 1
  0,                                      !- Minute 1
  0;                                      !- Value Until Time 1

OS:Schedule:Day,
  {21186b9e-380c-44d8-b5cd-06c7ce401ff4}, !- Handle
  Schedule Day 3,                         !- Name
  ,                                       !- Schedule Type Limits Name
  ,                                       !- Interpolate to Timestep
  24,                                     !- Hour 1
  0,                                      !- Minute 1
  0;                                      !- Value Until Time 1

OS:Schedule:Day,
  {0988d182-9832-4496-bfc5-dccbc4acc0ab}, !- Handle
  0700|2300|FullServiceRestaurant|default|hoo Summer Design Day, !- Name
  {a6f290c4-6632-4b0b-bfa3-d1aa1fa0edc0}, !- Schedule Type Limits Name
  ,                                       !- Interpolate to Timestep
  24,                                     !- Hour 1
  0,                                      !- Minute 1
  1;                                      !- Value Until Time 1

OS:DefaultScheduleSet,
  {a21d52c7-4d82-478b-bd6c-a21a5137ee76}, !- Handle
  Building Hours of Operation,            !- Name
  {02388397-e999-4474-8a82-eb25de2f6edc}, !- Hours of Operation Schedule Name
  ,                                       !- Number of People Schedule Name
  ,                                       !- People Activity Level Schedule Name
  ,                                       !- Lighting Schedule Name
  ,                                       !- Electric Equipment Schedule Name
  ,                                       !- Gas Equipment Schedule Name
  ,                                       !- Hot Water Equipment Schedule Name
  ,                                       !- Infiltration Schedule Name
  ,                                       !- Steam Equipment Schedule Name
  ;                                       !- Other Equipment Schedule Name

OS:ScheduleTypeLimits,
  {a6f290c4-6632-4b0b-bfa3-d1aa1fa0edc0}, !- Handle
  OnOff,                                  !- Name
  0,                                      !- Lower Limit Value {BasedOnField A4}
  1,                                      !- Upper Limit Value {BasedOnField A4}
  Discrete,                               !- Numeric Type
  Availability;                           !- Unit Type

OS:Schedule:Ruleset,
  {58e4746c-cce0-45e1-90b5-6e76d129d50b}, !- Handle
  0700|2300|FullServiceRestaurant|default|lighting, !- Name
  {ad50635a-50f2-42f5-8ba9-b81623e8d121}, !- Schedule Type Limits Name
  {8115928a-ff2d-4bcc-b785-e667024e8898}, !- Default Day Schedule Name
  {622dfcee-2277-44d2-8b14-f2691330868e}, !- Summer Design Day Schedule Name
  {2678add8-f059-4b72-ab8b-fe8115925ce8}; !- Winter Design Day Schedule Name

OS:ScheduleTypeLimits,
  {ad50635a-50f2-42f5-8ba9-b81623e8d121}, !- Handle
  Lights Schedule Type Limits,            !- Name
  0,                                      !- Lower Limit Value {BasedOnField A4}
  1,                                      !- Upper Limit Value {BasedOnField A4}
  Continuous,                             !- Numeric Type
  Dimensionless;                          !- Unit Type

OS:Schedule:Day,
  {8115928a-ff2d-4bcc-b785-e667024e8898}, !- Handle
  0700|2300|FullServiceRestaurant|default|lighting |default, !- Name
  {ad50635a-50f2-42f5-8ba9-b81623e8d121}, !- Schedule Type Limits Name
  ,                                       !- Interpolate to Timestep
  1,                                      !- Hour 1
  0,                                      !- Minute 1
  0.45,                                   !- Value Until Time 1
  5,                                      !- Hour 2
  0,                                      !- Minute 2
  0.15,                                   !- Value Until Time 2
  6,                                      !- Hour 3
  0,                                      !- Minute 3
  0.45,                                   !- Value Until Time 3
  24,                                     !- Hour 4
  0,                                      !- Minute 4
  0.9;                                    !- Value Until Time 4

OS:Schedule:Day,
  {622dfcee-2277-44d2-8b14-f2691330868e}, !- Handle
  0700|2300|FullServiceRestaurant|default|lighting Summer Design Day, !- Name
  {ad50635a-50f2-42f5-8ba9-b81623e8d121}, !- Schedule Type Limits Name
  ,                                       !- Interpolate to Timestep
  1,                                      !- Hour 1
  0,                                      !- Minute 1
  1,                                      !- Value Until Time 1
  5,                                      !- Hour 2
  0,                                      !- Minute 2
  0.15,                                   !- Value Until Time 2
  24,                                     !- Hour 3
  0,                                      !- Minute 3
  1;                                      !- Value Until Time 3

OS:Schedule:Day,
  {2678add8-f059-4b72-ab8b-fe8115925ce8}, !- Handle
  0700|2300|FullServiceRestaurant|default|lighting Winter Design Day, !- Name
  {ad50635a-50f2-42f5-8ba9-b81623e8d121}, !- Schedule Type Limits Name
  ,                                       !- Interpolate to Timestep
  24,                                     !- Hour 1
  0,                                      !- Minute 1
  0.15;                                   !- Value Until Time 1

OS:Schedule:Ruleset,
  {36ffd24e-1da7-497f-8c74-9727ac1bc4d4}, !- Handle
  0700|2300|FullServiceRestaurant|default|rh, !- Name
  {a7ff1648-8fe7-4498-98f3-fde9967a8fbe}, !- Schedule Type Limits Name
  {ed4cc9db-3cf4-415e-a53c-a07d17eb1080}, !- Default Day Schedule Name
  {a3969092-d8f0-495b-83a0-33c5e73f9db2}, !- Summer Design Day Schedule Name
  {4f5cdfd7-f328-4f35-b2e2-2ecbc77a801a}; !- Winter Design Day Schedule Name

OS:ScheduleTypeLimits,
  {a7ff1648-8fe7-4498-98f3-fde9967a8fbe}, !- Handle
  Dimensionless Schedule Type Limits,     !- Name
  ,                                       !- Lower Limit Value {BasedOnField A4}
  ,                                       !- Upper Limit Value {BasedOnField A4}
  Continuous,                             !- Numeric Type
  Dimensionless;                          !- Unit Type

OS:Schedule:Day,
  {ed4cc9db-3cf4-415e-a53c-a07d17eb1080}, !- Handle
  0700|2300|FullServiceRestaurant|default|rh |default, !- Name
  {a7ff1648-8fe7-4498-98f3-fde9967a8fbe}, !- Schedule Type Limits Name
  ,                                       !- Interpolate to Timestep
  24,                                     !- Hour 1
  0,                                      !- Minute 1
  50;                                     !- Value Until Time 1

OS:Schedule:Day,
  {a3969092-d8f0-495b-83a0-33c5e73f9db2}, !- Handle
  0700|2300|FullServiceRestaurant|default|rh Summer Design Day, !- Name
  {a7ff1648-8fe7-4498-98f3-fde9967a8fbe}, !- Schedule Type Limits Name
  ,                                       !- Interpolate to Timestep
  24,                                     !- Hour 1
  0,                                      !- Minute 1
  50;                                     !- Value Until Time 1

OS:Schedule:Day,
  {4f5cdfd7-f328-4f35-b2e2-2ecbc77a801a}, !- Handle
  0700|2300|FullServiceRestaurant|default|rh Winter Design Day, !- Name
  {a7ff1648-8fe7-4498-98f3-fde9967a8fbe}, !- Schedule Type Limits Name
  ,                                       !- Interpolate to Timestep
  24,                                     !- Hour 1
  0,                                      !- Minute 1
  50;                                     !- Value Until Time 1

OS:Schedule:Ruleset,
  {d055174a-23ab-4866-ac3c-3d988355f736}, !- Handle
  0700|2300|FullServiceRestaurant|default|clg_setpoint, !- Name
  {bad0da66-d302-4009-9011-209193de1492}, !- Schedule Type Limits Name
  {75ef7300-bbe8-409b-b45a-9418d4ef5eb2}, !- Default Day Schedule Name
  {5bf7b3ad-127a-4060-94b8-8b8e401bfcb5}, !- Summer Design Day Schedule Name
  {284b8765-f376-4d28-a947-81c9cb7d38a3}; !- Winter Design Day Schedule Name

OS:ScheduleTypeLimits,
  {bad0da66-d302-4009-9011-209193de1492}, !- Handle
  Thermostat Cooling Setpoint Schedule Type Limits, !- Name
  0,                                      !- Lower Limit Value {BasedOnField A4}
  100,                                    !- Upper Limit Value {BasedOnField A4}
  Continuous,                             !- Numeric Type
  Temperature;                            !- Unit Type

OS:Schedule:Day,
  {75ef7300-bbe8-409b-b45a-9418d4ef5eb2}, !- Handle
  0700|2300|FullServiceRestaurant|default|clg_setpoint |default, !- Name
  {bad0da66-d302-4009-9011-209193de1492}, !- Schedule Type Limits Name
  ,                                       !- Interpolate to Timestep
  1,                                      !- Hour 1
  0,                                      !- Minute 1
  24.0000000000001,                       !- Value Until Time 1
  5,                                      !- Hour 2
  0,                                      !- Minute 2
  30.0000000000001,                       !- Value Until Time 2
  24,                                     !- Hour 3
  0,                                      !- Minute 3
  24.0000000000001;                       !- Value Until Time 3

OS:Schedule:Day,
  {5bf7b3ad-127a-4060-94b8-8b8e401bfcb5}, !- Handle
  0700|2300|FullServiceRestaurant|default|clg_setpoint Summer Design Day, !- Name
  {bad0da66-d302-4009-9011-209193de1492}, !- Schedule Type Limits Name
  ,                                       !- Interpolate to Timestep
  24,                                     !- Hour 1
  0,                                      !- Minute 1
  30.0000000000001;                       !- Value Until Time 1

OS:Schedule:Day,
  {284b8765-f376-4d28-a947-81c9cb7d38a3}, !- Handle
  0700|2300|FullServiceRestaurant|default|clg_setpoint Winter Design Day, !- Name
  {bad0da66-d302-4009-9011-209193de1492}, !- Schedule Type Limits Name
  ,                                       !- Interpolate to Timestep
  1,                                      !- Hour 1
  0,                                      !- Minute 1
  24.0000000000001,                       !- Value Until Time 1
  5,                                      !- Hour 2
  0,                                      !- Minute 2
  30.0000000000001,                       !- Value Until Time 2
  24,                                     !- Hour 3
  0,                                      !- Minute 3
  24.0000000000001;                       !- Value Until Time 3

OS:Schedule:Ruleset,
  {b86a1dbc-d907-4e51-a617-2efc8f36e3cf}, !- Handle
  0700|2300|FullServiceRestaurant|default|air_velocity, !- Name
  {a7ff1648-8fe7-4498-98f3-fde9967a8fbe}, !- Schedule Type Limits Name
  {98ba7a37-d052-4a02-93eb-b67e5e1be33e}, !- Default Day Schedule Name
  {44b371eb-2260-4e55-bc65-b35718a109fb}, !- Summer Design Day Schedule Name
  {34916ef5-f217-41af-a231-13d0a770b96e}; !- Winter Design Day Schedule Name

OS:Schedule:Day,
  {98ba7a37-d052-4a02-93eb-b67e5e1be33e}, !- Handle
  0700|2300|FullServiceRestaurant|default|air_velocity |default, !- Name
  {a7ff1648-8fe7-4498-98f3-fde9967a8fbe}, !- Schedule Type Limits Name
  ,                                       !- Interpolate to Timestep
  24,                                     !- Hour 1
  0,                                      !- Minute 1
  0.200152;                               !- Value Until Time 1

OS:Schedule:Day,
  {44b371eb-2260-4e55-bc65-b35718a109fb}, !- Handle
  0700|2300|FullServiceRestaurant|default|air_velocity Summer Design Day, !- Name
  {a7ff1648-8fe7-4498-98f3-fde9967a8fbe}, !- Schedule Type Limits Name
  ,                                       !- Interpolate to Timestep
  24,                                     !- Hour 1
  0,                                      !- Minute 1
  0.200152;                               !- Value Until Time 1

OS:Schedule:Day,
  {34916ef5-f217-41af-a231-13d0a770b96e}, !- Handle
  0700|2300|FullServiceRestaurant|default|air_velocity Winter Design Day, !- Name
  {a7ff1648-8fe7-4498-98f3-fde9967a8fbe}, !- Schedule Type Limits Name
  ,                                       !- Interpolate to Timestep
  24,                                     !- Hour 1
  0,                                      !- Minute 1
  0.200152;                               !- Value Until Time 1

OS:Schedule:Ruleset,
  {ef6c4cb5-1196-4df7-bf71-8df738155605}, !- Handle
  0700|2300|FullServiceRestaurant|default|clothing, !- Name
  {a7ff1648-8fe7-4498-98f3-fde9967a8fbe}, !- Schedule Type Limits Name
  {3dc628d9-f5f0-433f-a0a6-ff891aa44bd5}, !- Default Day Schedule Name
  {84046224-196a-4c8d-b1ae-8cf74b084596}, !- Summer Design Day Schedule Name
  {a506fdce-8d0a-42cf-9b81-e4e235e9d1e0}; !- Winter Design Day Schedule Name

OS:Schedule:Day,
  {3dc628d9-f5f0-433f-a0a6-ff891aa44bd5}, !- Handle
  0700|2300|FullServiceRestaurant|default|clothing |default, !- Name
  {a7ff1648-8fe7-4498-98f3-fde9967a8fbe}, !- Schedule Type Limits Name
  ,                                       !- Interpolate to Timestep
  24,                                     !- Hour 1
  0,                                      !- Minute 1
  1;                                      !- Value Until Time 1

OS:Schedule:Day,
  {84046224-196a-4c8d-b1ae-8cf74b084596}, !- Handle
  0700|2300|FullServiceRestaurant|default|clothing Summer Design Day, !- Name
  {a7ff1648-8fe7-4498-98f3-fde9967a8fbe}, !- Schedule Type Limits Name
  ,                                       !- Interpolate to Timestep
  24,                                     !- Hour 1
  0,                                      !- Minute 1
  1;                                      !- Value Until Time 1

OS:Schedule:Day,
  {a506fdce-8d0a-42cf-9b81-e4e235e9d1e0}, !- Handle
  0700|2300|FullServiceRestaurant|default|clothing Winter Design Day, !- Name
  {a7ff1648-8fe7-4498-98f3-fde9967a8fbe}, !- Schedule Type Limits Name
  ,                                       !- Interpolate to Timestep
  24,                                     !- Hour 1
  0,                                      !- Minute 1
  1;                                      !- Value Until Time 1

OS:Schedule:Rule,
  {eca43ca4-5298-4928-a1d0-b9babe4cfe47}, !- Handle
  0700|2300|FullServiceRestaurant|default|clothing |5/1-9/30|Mon/Tue/Wed/Thu/Fri/Sat/Sun Rule, !- Name
  {ef6c4cb5-1196-4df7-bf71-8df738155605}, !- Schedule Ruleset Name
  0,                                      !- Rule Order
  {1990e4e9-263f-4239-9a1a-9a2a24ec3815}, !- Day Schedule Name
  Yes,                                    !- Apply Sunday
  Yes,                                    !- Apply Monday
  Yes,                                    !- Apply Tuesday
  Yes,                                    !- Apply Wednesday
  Yes,                                    !- Apply Thursday
  Yes,                                    !- Apply Friday
  Yes,                                    !- Apply Saturday
  ,                                       !- Apply Holiday
  DateRange,                              !- Date Specification Type
  5,                                      !- Start Month
  1,                                      !- Start Day
  9,                                      !- End Month
  30;                                     !- End Day

OS:Schedule:Day,
  {1990e4e9-263f-4239-9a1a-9a2a24ec3815}, !- Handle
  0700|2300|FullServiceRestaurant|default|clothing |5/1-9/30|Mon/Tue/Wed/Thu/Fri/Sat/Sun, !- Name
  {a7ff1648-8fe7-4498-98f3-fde9967a8fbe}, !- Schedule Type Limits Name
  ,                                       !- Interpolate to Timestep
  24,                                     !- Hour 1
  0,                                      !- Minute 1
  0.5;                                    !- Value Until Time 1

OS:Schedule:Rule,
  {d9525e88-8eaa-4adb-9640-397baf0590d5}, !- Handle
  0700|2300|FullServiceRestaurant|default|clothing |10/1-12/31|Mon/Tue/Wed/Thu/Fri/Sat/Sun Rule, !- Name
  {ef6c4cb5-1196-4df7-bf71-8df738155605}, !- Schedule Ruleset Name
  1,                                      !- Rule Order
  {963f27e7-2150-4f16-85f9-c544ef641665}, !- Day Schedule Name
  Yes,                                    !- Apply Sunday
  Yes,                                    !- Apply Monday
  Yes,                                    !- Apply Tuesday
  Yes,                                    !- Apply Wednesday
  Yes,                                    !- Apply Thursday
  Yes,                                    !- Apply Friday
  Yes,                                    !- Apply Saturday
  ,                                       !- Apply Holiday
  DateRange,                              !- Date Specification Type
  10,                                     !- Start Month
  1,                                      !- Start Day
  12,                                     !- End Month
  31;                                     !- End Day

OS:Schedule:Day,
  {963f27e7-2150-4f16-85f9-c544ef641665}, !- Handle
  0700|2300|FullServiceRestaurant|default|clothing |10/1-12/31|Mon/Tue/Wed/Thu/Fri/Sat/Sun, !- Name
  {a7ff1648-8fe7-4498-98f3-fde9967a8fbe}, !- Schedule Type Limits Name
  ,                                       !- Interpolate to Timestep
  24,                                     !- Hour 1
  0,                                      !- Minute 1
  1;                                      !- Value Until Time 1

OS:Schedule:Ruleset,
  {f8bff816-b0f2-4dd3-9c5d-9cd83c75a0e1}, !- Handle
  0700|2300|FullServiceRestaurant|default|occ, !- Name
  {8b0f8c96-21f8-4bb5-a592-c424ce749163}, !- Schedule Type Limits Name
  {df94185c-0a36-410f-bba9-091e5bde9390}, !- Default Day Schedule Name
  {ce856e89-a8ab-4496-81fd-3e98119ef4d1}, !- Summer Design Day Schedule Name
  {c3e8d806-6b8f-4ce4-bcca-c29018e0a5ec}; !- Winter Design Day Schedule Name

OS:ScheduleTypeLimits,
  {8b0f8c96-21f8-4bb5-a592-c424ce749163}, !- Handle
  Occupancy Schedule Type Limits,         !- Name
  0,                                      !- Lower Limit Value {BasedOnField A4}
  1,                                      !- Upper Limit Value {BasedOnField A4}
  Continuous,                             !- Numeric Type
  Dimensionless;                          !- Unit Type

OS:Schedule:Day,
  {df94185c-0a36-410f-bba9-091e5bde9390}, !- Handle
  0700|2300|FullServiceRestaurant|default|occ |default, !- Name
  {8b0f8c96-21f8-4bb5-a592-c424ce749163}, !- Schedule Type Limits Name
  ,                                       !- Interpolate to Timestep
  1,                                      !- Hour 1
  0,                                      !- Minute 1
  0.05,                                   !- Value Until Time 1
  5,                                      !- Hour 2
  0,                                      !- Minute 2
  0,                                      !- Value Until Time 2
  6,                                      !- Hour 3
  0,                                      !- Minute 3
  0.05,                                   !- Value Until Time 3
  7,                                      !- Hour 4