
OS:Version,
  {11cfa152-463f-4293-8b25-253f62599143}, !- Handle
  1.5.5;                                  !- Version Identifier

OS:ClimateZones,
  {135edfab-17e7-40db-a436-27d385a8cd6d}, !- Handle
  ,                                       !- Active Institution
  ,                                       !- Active Year
  ASHRAE,                                 !- Climate Zone Institution Name 1
  ANSI/ASHRAE Standard 169,               !- Climate Zone Document Name 1
  2006,                                   !- Climate Zone Document Year 1
  ,                                       !- Climate Zone Value 1
  CEC,                                    !- Climate Zone Institution Name 2
  California Climate Zone Descriptions,   !- Climate Zone Document Name 2
  1995,                                   !- Climate Zone Document Year 2
  ;                                       !- Climate Zone Value 2

OS:YearDescription,
  {513d8dda-86cb-442a-b01c-1f7f0e0ac70e}; !- Handle

OS:RadianceParameters,
  {270a96f1-3c86-4b75-a667-cdf22790e2c8}, !- Handle
  1,                                      !- Accumulated Rays per Record
  0,                                      !- Direct Threshold
  1,                                      !- Direct Certainty
  1,                                      !- Direct Jitter
  1,                                      !- Direct Pretest
  6,                                      !- Ambient Bounces VMX
  2,                                      !- Ambient Bounces DMX
  4050,                                   !- Ambient Divisions VMX
  512,                                    !- Ambient Divisions DMX
  256,                                    !- Ambient Supersamples
  0.001,                                  !- Limit Weight VMX
  0.001,                                  !- Limit Weight DMX
  500,                                    !- Klems Sampling Density
  146;                                    !- Sky Discretization Resolution

OS:SimulationControl,
  {2c487a4c-bac9-4ac5-b669-1e49d9da7c2b}, !- Handle
  ,                                       !- Do Zone Sizing Calculation
  ,                                       !- Do System Sizing Calculation
  ,                                       !- Do Plant Sizing Calculation
  No,                                     !- Run Simulation for Sizing Periods
  ,                                       !- Run Simulation for Weather File Run Periods
  0.04,                                   !- Loads Convergence Tolerance Value
  ,                                       !- Temperature Convergence Tolerance Value {deltaC}
  ,                                       !- Solar Distribution
  ,                                       !- Maximum Number of Warmup Days
  2;                                      !- Minimum Number of Warmup Days

OS:Sizing:Parameters,
  {dde5af6f-7923-4600-a28a-7556673a0266}, !- Handle
  1.25,                                   !- Heating Sizing Factor
  1.15;                                   !- Cooling Sizing Factor

OS:ProgramControl,
  {05027a99-f2b3-4aeb-afc6-1425fbb4371d}; !- Handle

OS:Timestep,
  {4ebc9f1e-4707-402e-9844-67eb1ffbd522}, !- Handle
  2;                                      !- Number of Timesteps per Hour

OS:OutputControl:ReportingTolerances,
  {65797aa2-06a9-45fe-b69d-bc6e060399d3}; !- Handle

OS:ConvergenceLimits,
  {9fc11aba-8822-4f3d-970c-46391ba4040d}; !- Handle

OS:ShadowCalculation,
  {ca758bea-4416-4626-9bba-3d8795c79bd6}, !- Handle
  7,                                      !- Calculation Frequency
  15000;                                  !- Maximum Figures in Shadow Overlap Calculations

OS:SurfaceConvectionAlgorithm:Inside,
  {aaabfc36-718a-4ab0-b622-f186ebb45230}, !- Handle
  TARP;                                   !- Algorithm

OS:SurfaceConvectionAlgorithm:Outside,
  {9a0a9f6f-4bbd-4b12-a121-9492a1fcd7d6}, !- Handle
  DOE-2;                                  !- Algorithm

OS:HeatBalanceAlgorithm,
  {9d93e563-e1e0-46d7-9e39-d1c8aceb7212}, !- Handle
  ConductionTransferFunction,             !- Algorithm
  200;                                    !- Surface Temperature Upper Limit {F}

OS:ZoneAirHeatBalanceAlgorithm,
  {8520d93e-310f-4696-9bcd-36228bfdd743}, !- Handle
  AnalyticalSolution;                     !- Algorithm

OS:ZoneAirContaminantBalance,
  {eb5fc3ae-fb22-4160-8fcb-3e3b22b000d3}; !- Handle

OS:ZoneCapacitanceMultiplier:ResearchSpecial,
  {4020ce4f-5a7a-4849-8028-8305d7b751b1}, !- Handle
  ,                                       !- Temperature Capacity Multiplier
  ,                                       !- Humidity Capacity Multiplier
  ;                                       !- Carbon Dioxide Capacity Multiplier

OS:RunPeriod,
  {28df894d-6af9-4fb8-8f56-df1753344aa3}, !- Handle
  Run Period 1,                           !- Name
  1,                                      !- Begin Month
  1,                                      !- Begin Day of Month
  12,                                     !- End Month
  31,                                     !- End Day of Month
  ,                                       !- Use Weather File Holidays and Special Days
  ,                                       !- Use Weather File Daylight Saving Period
  ,                                       !- Apply Weekend Holiday Rule
  ,                                       !- Use Weather File Rain Indicators
  ,                                       !- Use Weather File Snow Indicators
  ;                                       !- Number of Times Runperiod to be Repeated

OS:Building,
  {bf305633-c5a1-4881-9edf-ca5e1a8e1274}, !- Handle
  Building 1,                             !- Name
  ,                                       !- Building Sector Type
  ,                                       !- North Axis {deg}
  ,                                       !- Nominal Floor to Floor Height {m}
  ,                                       !- Space Type Name
  ,                                       !- Default Construction Set Name
  {ab159b76-6eed-4cdd-9277-efe40d82482c}, !- Default Schedule Set Name
  ,                                       !- Standards Number of Stories
  ,                                       !- Standards Number of Above Ground Stories
  FullServiceRestaurant;                  !- Standards Building Type

OS:LifeCycleCost:Parameters,
  {231cf8a0-f0e7-4251-a99f-11f0d464e661}, !- Handle
  FEMP,                                   !- Analysis Type
  ,                                       !- Discounting Convention
  ,                                       !- Inflation Approach
  ,                                       !- Real Discount Rate
  ,                                       !- Nominal Discount Rate
  ,                                       !- Inflation
  ,                                       !- Base Date Month
  ,                                       !- Base Date Year
  ,                                       !- Service Date Month
  ,                                       !- Service Date Year
  ,                                       !- Length of Study Period in Years
  ,                                       !- Tax Rate
  ,                                       !- Depreciation Method
  Yes;                                    !- Use NIST Fuel Escalation Rates

OS:Facility,
  {3ba8e45b-b833-44eb-a723-ea6c3946dc96}; !- Handle

OS:SpaceType,
  {880839ac-1895-42ec-9477-86af4b18e5d3}, !- Handle
  FullServiceRestaurant|Dining|DOE Ref 2004|ASHRAE 169-2006-5A, !- Name
  {030317d9-1be9-4bd1-9bdb-390bb89b6424}, !- Default Construction Set Name
  {8359e60a-0470-4691-af52-6a480a99ed1b}, !- Default Schedule Set Name
  {ea883a9c-203c-4128-906d-95f3e34f28be}, !- Group Rendering Name
  {5b7594cc-bea1-40f2-ba93-5e668c87c790}, !- Design Specification Outdoor Air Object Name
  FullServiceRestaurant,                  !- Standards Building Type
  Dining;                                 !- Standards Space Type

OS:Rendering:Color,
  {ea883a9c-203c-4128-906d-95f3e34f28be}, !- Handle
  Rendering Color 1,                      !- Name
  31,                                     !- Rendering Red Value
  169,                                    !- Rendering Green Value
  34;                                     !- Rendering Blue Value

OS:SpaceType,
  {e147b3a2-270a-4278-8882-862dc642086b}, !- Handle
  FullServiceRestaurant|Kitchen|DOE Ref 2004|ASHRAE 169-2006-5A, !- Name
  {030317d9-1be9-4bd1-9bdb-390bb89b6424}, !- Default Construction Set Name
  {73c6d348-aeb2-4fa2-8ab9-b7b1b12e92bf}, !- Default Schedule Set Name
  {c2c89d30-8378-4f56-9cf0-50ff2525364a}, !- Group Rendering Name
  {85009efe-7194-441e-9311-68af16a9d6f1}, !- Design Specification Outdoor Air Object Name
  FullServiceRestaurant,                  !- Standards Building Type
  Kitchen;                                !- Standards Space Type

OS:Rendering:Color,
  {c2c89d30-8378-4f56-9cf0-50ff2525364a}, !- Handle
  Rendering Color 2,                      !- Name
  78,                                     !- Rendering Red Value
  222,                                    !- Rendering Green Value
  133;                                    !- Rendering Blue Value

OS:Schedule:Ruleset,
  {19b599e3-30cf-4255-8c77-7add82cdbd1e}, !- Handle
  0700|2300|FullServiceRestaurant|default|hoo, !- Name
  {d3a659a2-0934-4ff7-b3ca-5c250f4b5eb4}, !- Schedule Type Limits Name
  {b10c3458-9717-4326-895e-8f22fccfdfb7}, !- Default Day Schedule Name
  {d4013020-913e-430c-8cdd-7d74b28cf4bd}, !- Summer Design Day Schedule Name
  {919e6e2b-fe31-4354-9e42-6f822d5aa7af}; !- Winter Design Day Schedule Name

OS:Schedule:Day,
  {b10c3458-9717-4326-895e-8f22fccfdfb7}, !- Handle
  0700|2300|FullServiceRestaurant|default|hoo Schedule Week Day, !- Name
  {d3a659a2-0934-4ff7-b3ca-5c250f4b5eb4}, !- Schedule Type Limits Name
  ,                                       !- Interpolate to Timestep
  7,                                      !- Hour 1
  0,                                      !- Minute 1
  0,                                      !- Value Until Time 1
  23,                                     !- Hour 2
  0,                                      !- Minute 2
  1,                                      !- Value Until Time 2
  24,                                     !- Hour 3
  0,                                      !- Minute 3
  0;                                      !- Value Until Time 3

OS:Schedule:Day,
  {e64917df-d821-4e1b-9413-5d5e29fd8baf}, !- Handle
  Schedule Day 2,                         !- Name
  ,                                       !- Schedule Type Limits Name
  ,                                       !- Interpolate to Timestep
  24,                                     !- Hour 1
  0,                                      !- Minute 1
  0;                                      !- Value Until Time 1

OS:Schedule:Day,
  {919e6e2b-fe31-4354-9e42-6f822d5aa7af}, !- Handle
  0700|2300|FullServiceRestaurant|default|hoo Winter Design Day, !- Name
  {d3a659a2-0934-4ff7-b3ca-5c250f4b5eb4}, !- Schedule Type Limits Name
  ,                                       !- Interpolate to Timestep
  24,                                     !- Hour 1
  0,                                      !- Minute 1
  0;                                      !- Value Until Time 1

OS:Schedule:Day,
  {75fcc868-7558-41f7-8eb2-bf7547a374c8}, !- Handle
  Schedule Day 3,                         !- Name
  ,                                       !- Schedule Type Limits Name
  ,                                       !- Interpolate to Timestep
  24,                                     !- Hour 1
  0,                                      !- Minute 1
  0;                                      !- Value Until Time 1

OS:Schedule:Day,
  {d4013020-913e-430c-8cdd-7d74b28cf4bd}, !- Handle
  0700|2300|FullServiceRestaurant|default|hoo Summer Design Day, !- Name
  {d3a659a2-0934-4ff7-b3ca-5c250f4b5eb4}, !- Schedule Type Limits Name
  ,                                       !- Interpolate to Timestep
  24,                                     !- Hour 1
  0,                                      !- Minute 1
  1;                                      !- Value Until Time 1

OS:DefaultScheduleSet,
  {ab159b76-6eed-4cdd-9277-efe40d82482c}, !- Handle
  Building Hours of Operation,            !- Name
  {19b599e3-30cf-4255-8c77-7add82cdbd1e}, !- Hours of Operation Schedule Name
  ,                                       !- Number of People Schedule Name
  ,                                       !- People Activity Level Schedule Name
  ,                                       !- Lighting Schedule Name
  ,                                       !- Electric Equipment Schedule Name
  ,                                       !- Gas Equipment Schedule Name
  ,                                       !- Hot Water Equipment Schedule Name
  ,                                       !- Infiltration Schedule Name
  ,                                       !- Steam Equipment Schedule Name
  ;                                       !- Other Equipment Schedule Name

OS:ScheduleTypeLimits,
  {d3a659a2-0934-4ff7-b3ca-5c250f4b5eb4}, !- Handle
  OnOff,                                  !- Name
  0,                                      !- Lower Limit Value {BasedOnField A4}
  1,                                      !- Upper Limit Value {BasedOnField A4}
  Discrete,                               !- Numeric Type
  Availability;                           !- Unit Type

OS:Schedule:Ruleset,
  {725d5244-6dda-4c2e-aacb-3e43f8aae590}, !- Handle
  0700|2300|FullServiceRestaurant|default|lighting, !- Name
  {636e086c-f3f6-448f-9c62-486ed372a7be}, !- Schedule Type Limits Name
  {72f4efba-ad10-4e6d-8153-79633f518d81}, !- Default Day Schedule Name
  {8b1fb4da-0f4d-46dc-b8d4-4aadf20a99b1}, !- Summer Design Day Schedule Name
  {5300458c-dda5-4aca-8e50-247b2e567b02}; !- Winter Design Day Schedule Name

OS:ScheduleTypeLimits,
  {636e086c-f3f6-448f-9c62-486ed372a7be}, !- Handle
  Lights Schedule Type Limits,            !- Name
  0,                                      !- Lower Limit Value {BasedOnField A4}
  1,                                      !- Upper Limit Value {BasedOnField A4}
  Continuous,                             !- Numeric Type
  Dimensionless;                          !- Unit Type

OS:Schedule:Day,
  {72f4efba-ad10-4e6d-8153-79633f518d81}, !- Handle
  0700|2300|FullServiceRestaurant|default|lighting |default, !- Name
  {636e086c-f3f6-448f-9c62-486ed372a7be}, !- Schedule Type Limits Name
  ,                                       !- Interpolate to Timestep
  1,                                      !- Hour 1
  0,                                      !- Minute 1
  0.45,                                   !- Value Until Time 1
  5,                                      !- Hour 2
  0,                                      !- Minute 2
  0.15,                                   !- Value Until Time 2
  6,                                      !- Hour 3
  0,                                      !- Minute 3
  0.45,                                   !- Value Until Time 3
  24,                                     !- Hour 4
  0,                                      !- Minute 4
  0.9;                                    !- Value Until Time 4

OS:Schedule:Day,
  {8b1fb4da-0f4d-46dc-b8d4-4aadf20a99b1}, !- Handle
  0700|2300|FullServiceRestaurant|default|lighting Summer Design Day, !- Name
  {636e086c-f3f6-448f-9c62-486ed372a7be}, !- Schedule Type Limits Name
  ,                                       !- Interpolate to Timestep
  1,                                      !- Hour 1
  0,                                      !- Minute 1
  1,                                      !- Value Until Time 1
  5,                                      !- Hour 2
  0,                                      !- Minute 2
  0.15,                                   !- Value Until Time 2
  24,                                     !- Hour 3
  0,                                      !- Minute 3
  1;                                      !- Value Until Time 3

OS:Schedule:Day,
  {5300458c-dda5-4aca-8e50-247b2e567b02}, !- Handle
  0700|2300|FullServiceRestaurant|default|lighting Winter Design Day, !- Name
  {636e086c-f3f6-448f-9c62-486ed372a7be}, !- Schedule Type Limits Name
  ,                                       !- Interpolate to Timestep
  24,                                     !- Hour 1
  0,                                      !- Minute 1
  0.15;                                   !- Value Until Time 1

OS:Schedule:Ruleset,
  {0227e507-7afb-4fd9-b01a-dd4b76edfa94}, !- Handle
  0700|2300|FullServiceRestaurant|default|rh, !- Name
  {9ad9dcd9-303b-4549-a0ee-ec8a6ceef903}, !- Schedule Type Limits Name
  {fb7427fd-e01d-4f9a-a9f1-015ce2d11587}, !- Default Day Schedule Name
  {b96642cd-7966-44e9-9f45-8214646cf54f}, !- Summer Design Day Schedule Name
  {54f66b15-e7c8-405a-a483-eff78a64f249}; !- Winter Design Day Schedule Name

OS:ScheduleTypeLimits,
  {9ad9dcd9-303b-4549-a0ee-ec8a6ceef903}, !- Handle
  Dimensionless Schedule Type Limits,     !- Name
  ,                                       !- Lower Limit Value {BasedOnField A4}
  ,                                       !- Upper Limit Value {BasedOnField A4}
  Continuous,                             !- Numeric Type
  Dimensionless;                          !- Unit Type

OS:Schedule:Day,
  {fb7427fd-e01d-4f9a-a9f1-015ce2d11587}, !- Handle
  0700|2300|FullServiceRestaurant|default|rh |default, !- Name
  {9ad9dcd9-303b-4549-a0ee-ec8a6ceef903}, !- Schedule Type Limits Name
  ,                                       !- Interpolate to Timestep
  24,                                     !- Hour 1
  0,                                      !- Minute 1
  50;                                     !- Value Until Time 1

OS:Schedule:Day,
  {b96642cd-7966-44e9-9f45-8214646cf54f}, !- Handle
  0700|2300|FullServiceRestaurant|default|rh Summer Design Day, !- Name
  {9ad9dcd9-303b-4549-a0ee-ec8a6ceef903}, !- Schedule Type Limits Name
  ,                                       !- Interpolate to Timestep
  24,                                     !- Hour 1
  0,                                      !- Minute 1
  50;                                     !- Value Until Time 1

OS:Schedule:Day,
  {54f66b15-e7c8-405a-a483-eff78a64f249}, !- Handle
  0700|2300|FullServiceRestaurant|default|rh Winter Design Day, !- Name
  {9ad9dcd9-303b-4549-a0ee-ec8a6ceef903}, !- Schedule Type Limits Name
  ,                                       !- Interpolate to Timestep
  24,                                     !- Hour 1
  0,                                      !- Minute 1
  50;                                     !- Value Until Time 1

OS:Schedule:Ruleset,
  {4ef70ea3-36fe-48e2-a2b0-2632bf207378}, !- Handle
  0700|2300|FullServiceRestaurant|default|clg_setpoint, !- Name
  {c20a4329-0a5f-4514-9d78-13a7aef1fe87}, !- Schedule Type Limits Name
  {3215e9b9-8124-4cbb-b3a6-5010d1eebff7}, !- Default Day Schedule Name
  {c45d250e-0636-4afd-a332-994a9ccc020f}, !- Summer Design Day Schedule Name
  {460784e3-c7d1-4234-9094-0a5f71d1947c}; !- Winter Design Day Schedule Name

OS:ScheduleTypeLimits,
  {c20a4329-0a5f-4514-9d78-13a7aef1fe87}, !- Handle
  Thermostat Cooling Setpoint Schedule Type Limits, !- Name
  0,                                      !- Lower Limit Value {BasedOnField A4}
  100,                                    !- Upper Limit Value {BasedOnField A4}
  Continuous,                             !- Numeric Type
  Temperature;                            !- Unit Type

OS:Schedule:Day,
  {3215e9b9-8124-4cbb-b3a6-5010d1eebff7}, !- Handle
  0700|2300|FullServiceRestaurant|default|clg_setpoint |default, !- Name
  {c20a4329-0a5f-4514-9d78-13a7aef1fe87}, !- Schedule Type Limits Name
  ,                                       !- Interpolate to Timestep
  1,                                      !- Hour 1
  0,                                      !- Minute 1
  24.0000000000001,                       !- Value Until Time 1
  5,                                      !- Hour 2
  0,                                      !- Minute 2
  30.0000000000001,                       !- Value Until Time 2
  24,                                     !- Hour 3
  0,                                      !- Minute 3
  24.0000000000001;                       !- Value Until Time 3

OS:Schedule:Day,
  {c45d250e-0636-4afd-a332-994a9ccc020f}, !- Handle
  0700|2300|FullServiceRestaurant|default|clg_setpoint Summer Design Day, !- Name
  {c20a4329-0a5f-4514-9d78-13a7aef1fe87}, !- Schedule Type Limits Name
  ,                                       !- Interpolate to Timestep
  24,                                     !- Hour 1
  0,                                      !- Minute 1
  30.0000000000001;                       !- Value Until Time 1

OS:Schedule:Day,
  {460784e3-c7d1-4234-9094-0a5f71d1947c}, !- Handle
  0700|2300|FullServiceRestaurant|default|clg_setpoint Winter Design Day, !- Name
  {c20a4329-0a5f-4514-9d78-13a7aef1fe87}, !- Schedule Type Limits Name
  ,                                       !- Interpolate to Timestep
  1,                                      !- Hour 1
  0,                                      !- Minute 1
  24.0000000000001,                       !- Value Until Time 1
  5,                                      !- Hour 2
  0,                                      !- Minute 2
  30.0000000000001,                       !- Value Until Time 2
  24,                                     !- Hour 3
  0,                                      !- Minute 3
  24.0000000000001;                       !- Value Until Time 3

OS:Schedule:Ruleset,
  {4ffd2e65-0bee-4793-b478-75f65fa31db9}, !- Handle
  0700|2300|FullServiceRestaurant|default|air_velocity, !- Name
  {9ad9dcd9-303b-4549-a0ee-ec8a6ceef903}, !- Schedule Type Limits Name
  {904c46f0-d2b4-45a4-aedd-d6fcd3a36436}, !- Default Day Schedule Name
  {f758aaa8-1673-4ad5-b6c2-25765b0dbef3}, !- Summer Design Day Schedule Name
  {8164216d-2d4e-4d4b-b23d-2f30f1392e32}; !- Winter Design Day Schedule Name

OS:Schedule:Day,
  {904c46f0-d2b4-45a4-aedd-d6fcd3a36436}, !- Handle
  0700|2300|FullServiceRestaurant|default|air_velocity |default, !- Name
  {9ad9dcd9-303b-4549-a0ee-ec8a6ceef903}, !- Schedule Type Limits Name
  ,                                       !- Interpolate to Timestep
  24,                                     !- Hour 1
  0,                                      !- Minute 1
  0.200152;                               !- Value Until Time 1

OS:Schedule:Day,
  {f758aaa8-1673-4ad5-b6c2-25765b0dbef3}, !- Handle
  0700|2300|FullServiceRestaurant|default|air_velocity Summer Design Day, !- Name
  {9ad9dcd9-303b-4549-a0ee-ec8a6ceef903}, !- Schedule Type Limits Name
  ,                                       !- Interpolate to Timestep
  24,                                     !- Hour 1
  0,                                      !- Minute 1
  0.200152;                               !- Value Until Time 1

OS:Schedule:Day,
  {8164216d-2d4e-4d4b-b23d-2f30f1392e32}, !- Handle
  0700|2300|FullServiceRestaurant|default|air_velocity Winter Design Day, !- Name
  {9ad9dcd9-303b-4549-a0ee-ec8a6ceef903}, !- Schedule Type Limits Name
  ,                                       !- Interpolate to Timestep
  24,                                     !- Hour 1
  0,                                      !- Minute 1
  0.200152;                               !- Value Until Time 1

OS:Schedule:Ruleset,
  {8a7f5ca9-1579-4adc-b1f4-8ff7ace61b98}, !- Handle
  0700|2300|FullServiceRestaurant|default|clothing, !- Name
  {9ad9dcd9-303b-4549-a0ee-ec8a6ceef903}, !- Schedule Type Limits Name
  {f886926c-c8bb-40bc-84dc-874713c6cd77}, !- Default Day Schedule Name
  {7b8e5e85-90cc-4612-84fc-dfb5f9574fd2}, !- Summer Design Day Schedule Name
  {f2eab486-9103-46da-9e0d-809a292ea580}; !- Winter Design Day Schedule Name

OS:Schedule:Day,
  {f886926c-c8bb-40bc-84dc-874713c6cd77}, !- Handle
  0700|2300|FullServiceRestaurant|default|clothing |default, !- Name
  {9ad9dcd9-303b-4549-a0ee-ec8a6ceef903}, !- Schedule Type Limits Name
  ,                                       !- Interpolate to Timestep
  24,                                     !- Hour 1
  0,                                      !- Minute 1
  1;                                      !- Value Until Time 1

OS:Schedule:Day,
  {7b8e5e85-90cc-4612-84fc-dfb5f9574fd2}, !- Handle
  0700|2300|FullServiceRestaurant|default|clothing Summer Design Day, !- Name
  {9ad9dcd9-303b-4549-a0ee-ec8a6ceef903}, !- Schedule Type Limits Name
  ,                                       !- Interpolate to Timestep
  24,                                     !- Hour 1
  0,                                      !- Minute 1
  1;                                      !- Value Until Time 1

OS:Schedule:Day,
  {f2eab486-9103-46da-9e0d-809a292ea580}, !- Handle
  0700|2300|FullServiceRestaurant|default|clothing Winter Design Day, !- Name
  {9ad9dcd9-303b-4549-a0ee-ec8a6ceef903}, !- Schedule Type Limits Name
  ,                                       !- Interpolate to Timestep
  24,                                     !- Hour 1
  0,                                      !- Minute 1
  1;                                      !- Value Until Time 1

OS:Schedule:Rule,
  {22bfe433-9621-4adb-bd21-8f7c94106719}, !- Handle
  0700|2300|FullServiceRestaurant|default|clothing |5/1-9/30|Mon/Tue/Wed/Thu/Fri/Sat/Sun Rule, !- Name
  {8a7f5ca9-1579-4adc-b1f4-8ff7ace61b98}, !- Schedule Ruleset Name
  0,                                      !- Rule Order
  {22c3ffcc-cbcf-4c87-82da-eb2c7f0e8cd7}, !- Day Schedule Name
  Yes,                                    !- Apply Sunday
  Yes,                                    !- Apply Monday
  Yes,                                    !- Apply Tuesday
  Yes,                                    !- Apply Wednesday
  Yes,                                    !- Apply Thursday
  Yes,                                    !- Apply Friday
  Yes,                                    !- Apply Saturday
  ,                                       !- Apply Holiday
  DateRange,                              !- Date Specification Type
  5,                                      !- Start Month
  1,                                      !- Start Day
  9,                                      !- End Month
  30;                                     !- End Day

OS:Schedule:Day,
  {22c3ffcc-cbcf-4c87-82da-eb2c7f0e8cd7}, !- Handle
  0700|2300|FullServiceRestaurant|default|clothing |5/1-9/30|Mon/Tue/Wed/Thu/Fri/Sat/Sun, !- Name
  {9ad9dcd9-303b-4549-a0ee-ec8a6ceef903}, !- Schedule Type Limits Name
  ,                                       !- Interpolate to Timestep
  24,                                     !- Hour 1
  0,                                      !- Minute 1
  0.5;                                    !- Value Until Time 1

OS:Schedule:Rule,
  {e918b7aa-df47-416c-a0ac-6a34170a898a}, !- Handle
  0700|2300|FullServiceRestaurant|default|clothing |10/1-12/31|Mon/Tue/Wed/Thu/Fri/Sat/Sun Rule, !- Name
  {8a7f5ca9-1579-4adc-b1f4-8ff7ace61b98}, !- Schedule Ruleset Name
  1,                                      !- Rule Order
  {2aada2b1-924b-4718-b984-c0b16effe13a}, !- Day Schedule Name
  Yes,                                    !- Apply Sunday
  Yes,                                    !- Apply Monday
  Yes,                                    !- Apply Tuesday
  Yes,                                    !- Apply Wednesday
  Yes,                                    !- Apply Thursday
  Yes,                                    !- Apply Friday
  Yes,                                    !- Apply Saturday
  ,                                       !- Apply Holiday
  DateRange,                              !- Date Specification Type
  10,                                     !- Start Month
  1,                                      !- Start Day
  12,                                     !- End Month
  31;                                     !- End Day

OS:Schedule:Day,
  {2aada2b1-924b-4718-b984-c0b16effe13a}, !- Handle
  0700|2300|FullServiceRestaurant|default|clothing |10/1-12/31|Mon/Tue/Wed/Thu/Fri/Sat/Sun, !- Name
  {9ad9dcd9-303b-4549-a0ee-ec8a6ceef903}, !- Schedule Type Limits Name
  ,                                       !- Interpolate to Timestep
  24,                                     !- Hour 1
  0,                                      !- Minute 1
  1;                                      !- Value Until Time 1

OS:Schedule:Ruleset,
  {00b79c4d-e8b0-4a40-9066-add5f449d716}, !- Handle
  0700|2300|FullServiceRestaurant|default|occ, !- Name
  {6a5428e3-da6d-44c3-8d08-c55bfd0b55c1}, !- Schedule Type Limits Name
  {5f17c50a-20cd-43ee-a5c9-14550ec58be6}, !- Default Day Schedule Name
  {7513deb2-a4a5-42e2-bcb2-94317ffc11ea}, !- Summer Design Day Schedule Name
  {e48c63e8-a394-480c-a750-b0327fdc23b2}; !- Winter Design Day Schedule Name

OS:ScheduleTypeLimits,
  {6a5428e3-da6d-44c3-8d08-c55bfd0b55c1}, !- Handle
  Occupancy Schedule Type Limits,         !- Name
  0,                                      !- Lower Limit Value {BasedOnField A4}
  1,                                      !- Upper Limit Value {BasedOnField A4}
  Continuous,                             !- Numeric Type
  Dimensionless;                          !- Unit Type

OS:Schedule:Day,
  {5f17c50a-20cd-43ee-a5c9-14550ec58be6}, !- Handle
  0700|2300|FullServiceRestaurant|default|occ |default, !- Name
  {6a5428e3-da6d-44c3-8d08-c55bfd0b55c1}, !- Schedule Type Limits Name
  ,                                       !- Interpolate to Timestep
  1,                                      !- Hour 1
  0,                                      !- Minute 1
  0.05,                                   !- Value Until Time 1
  5,                                      !- Hour 2
  0,                                      !- Minute 2
  0,                                      !- Value Until Time 2
  6,                                      !- Hour 3
  0,                                      !- Minute 3
  0.05,                                   !- Value Until Time 3
  7,                                      !- Hour 4