
OS:Version,
  {3945d3e8-2294-4f82-82f9-326c5f2046fe}, !- Handle
  1.5.5;                                  !- Version Identifier

OS:ClimateZones,
  {135edfab-17e7-40db-a436-27d385a8cd6d}, !- Handle
  ,                                       !- Active Institution
  ,                                       !- Active Year
  ASHRAE,                                 !- Climate Zone Institution Name 1
  ANSI/ASHRAE Standard 169,               !- Climate Zone Document Name 1
  2006,                                   !- Climate Zone Document Year 1
  ,                                       !- Climate Zone Value 1
  CEC,                                    !- Climate Zone Institution Name 2
  California Climate Zone Descriptions,   !- Climate Zone Document Name 2
  1995,                                   !- Climate Zone Document Year 2
  ;                                       !- Climate Zone Value 2

OS:YearDescription,
  {513d8dda-86cb-442a-b01c-1f7f0e0ac70e}; !- Handle

OS:RadianceParameters,
  {270a96f1-3c86-4b75-a667-cdf22790e2c8}, !- Handle
  1,                                      !- Accumulated Rays per Record
  0,                                      !- Direct Threshold
  1,                                      !- Direct Certainty
  1,                                      !- Direct Jitter
  1,                                      !- Direct Pretest
  6,                                      !- Ambient Bounces VMX
  2,                                      !- Ambient Bounces DMX
  4050,                                   !- Ambient Divisions VMX
  512,                                    !- Ambient Divisions DMX
  256,                                    !- Ambient Supersamples
  0.001,                                  !- Limit Weight VMX
  0.001,                                  !- Limit Weight DMX
  500,                                    !- Klems Sampling Density
  146;                                    !- Sky Discretization Resolution

OS:SimulationControl,
  {2c487a4c-bac9-4ac5-b669-1e49d9da7c2b}, !- Handle
  ,                                       !- Do Zone Sizing Calculation
  ,                                       !- Do System Sizing Calculation
  ,                                       !- Do Plant Sizing Calculation
  No,                                     !- Run Simulation for Sizing Periods
  ,                                       !- Run Simulation for Weather File Run Periods
  0.04,                                   !- Loads Convergence Tolerance Value
  ,                                       !- Temperature Convergence Tolerance Value {deltaC}
  ,                                       !- Solar Distribution
  ,                                       !- Maximum Number of Warmup Days
  2;                                      !- Minimum Number of Warmup Days

OS:Sizing:Parameters,
  {dde5af6f-7923-4600-a28a-7556673a0266}, !- Handle
  1.25,                                   !- Heating Sizing Factor
  1.15;                                   !- Cooling Sizing Factor

OS:ProgramControl,
  {05027a99-f2b3-4aeb-afc6-1425fbb4371d}; !- Handle

OS:Timestep,
  {4ebc9f1e-4707-402e-9844-67eb1ffbd522}, !- Handle
  2;                                      !- Number of Timesteps per Hour

OS:OutputControl:ReportingTolerances,
  {65797aa2-06a9-45fe-b69d-bc6e060399d3}; !- Handle

OS:ConvergenceLimits,
  {9fc11aba-8822-4f3d-970c-46391ba4040d}; !- Handle

OS:ShadowCalculation,
  {ca758bea-4416-4626-9bba-3d8795c79bd6}, !- Handle
  7,                                      !- Calculation Frequency
  15000;                                  !- Maximum Figures in Shadow Overlap Calculations

OS:SurfaceConvectionAlgorithm:Inside,
  {aaabfc36-718a-4ab0-b622-f186ebb45230}, !- Handle
  TARP;                                   !- Algorithm

OS:SurfaceConvectionAlgorithm:Outside,
  {9a0a9f6f-4bbd-4b12-a121-9492a1fcd7d6}, !- Handle
  DOE-2;                                  !- Algorithm

OS:HeatBalanceAlgorithm,
  {9d93e563-e1e0-46d7-9e39-d1c8aceb7212}, !- Handle
  ConductionTransferFunction,             !- Algorithm
  200;                                    !- Surface Temperature Upper Limit {F}

OS:ZoneAirHeatBalanceAlgorithm,
  {8520d93e-310f-4696-9bcd-36228bfdd743}, !- Handle
  AnalyticalSolution;                     !- Algorithm

OS:ZoneAirContaminantBalance,
  {eb5fc3ae-fb22-4160-8fcb-3e3b22b000d3}; !- Handle

OS:ZoneCapacitanceMultiplier:ResearchSpecial,
  {4020ce4f-5a7a-4849-8028-8305d7b751b1}, !- Handle
  ,                                       !- Temperature Capacity Multiplier
  ,                                       !- Humidity Capacity Multiplier
  ;                                       !- Carbon Dioxide Capacity Multiplier

OS:RunPeriod,
  {28df894d-6af9-4fb8-8f56-df1753344aa3}, !- Handle
  Run Period 1,                           !- Name
  1,                                      !- Begin Month
  1,                                      !- Begin Day of Month
  12,                                     !- End Month
  31,                                     !- End Day of Month
  ,                                       !- Use Weather File Holidays and Special Days
  ,                                       !- Use Weather File Daylight Saving Period
  ,                                       !- Apply Weekend Holiday Rule
  ,                                       !- Use Weather File Rain Indicators
  ,                                       !- Use Weather File Snow Indicators
  ;                                       !- Number of Times Runperiod to be Repeated

OS:Building,
  {bf305633-c5a1-4881-9edf-ca5e1a8e1274}, !- Handle
  Building 1,                             !- Name
  ,                                       !- Building Sector Type
  ,                                       !- North Axis {deg}
  ,                                       !- Nominal Floor to Floor Height {m}
  ,                                       !- Space Type Name
  ,                                       !- Default Construction Set Name
  {4beb6a52-74e3-4b96-8d38-0654d305bb37}, !- Default Schedule Set Name
  ,                                       !- Standards Number of Stories
  ,                                       !- Standards Number of Above Ground Stories
  GasStation;                             !- Standards Building Type

OS:LifeCycleCost:Parameters,
  {231cf8a0-f0e7-4251-a99f-11f0d464e661}, !- Handle
  FEMP,                                   !- Analysis Type
  ,                                       !- Discounting Convention
  ,                                       !- Inflation Approach
  ,                                       !- Real Discount Rate
  ,                                       !- Nominal Discount Rate
  ,                                       !- Inflation
  ,                                       !- Base Date Month
  ,                                       !- Base Date Year
  ,                                       !- Service Date Month
  ,                                       !- Service Date Year
  ,                                       !- Length of Study Period in Years
  ,                                       !- Tax Rate
  ,                                       !- Depreciation Method
  Yes;                                    !- Use NIST Fuel Escalation Rates

OS:Facility,
  {3ba8e45b-b833-44eb-a723-ea6c3946dc96}; !- Handle

OS:SpaceType,
  {87390c78-4797-4f64-b145-98857e3c6bb0}, !- Handle
  GasStation|Retail|DOE Ref 2004|ASHRAE 169-2006-5A, !- Name
  {3162a677-8b80-4ec8-95f7-f9c69500f0ea}, !- Default Construction Set Name
  {9e17780a-7b36-4614-9b55-c43a18970deb}, !- Default Schedule Set Name
  {ccbe172f-e473-4136-8faa-e5a032027e5f}, !- Group Rendering Name
  {b2fff2a2-38e4-4327-8128-b2097ebc6673}, !- Design Specification Outdoor Air Object Name
  GasStation,                             !- Standards Building Type
  Retail;                                 !- Standards Space Type

OS:Rendering:Color,
  {ccbe172f-e473-4136-8faa-e5a032027e5f}, !- Handle
  Rendering Color 1,                      !- Name
  171,                                    !- Rendering Red Value
  222,                                    !- Rendering Green Value
  78;                                     !- Rendering Blue Value

OS:SpaceType,
  {959027f2-d660-450e-beb1-b614327df4b2}, !- Handle
  GasStation|Restroom|DOE Ref 2004|ASHRAE 169-2006-5A, !- Name
  {3162a677-8b80-4ec8-95f7-f9c69500f0ea}, !- Default Construction Set Name
  {cae1dc56-a66e-468a-879b-7e953840ca63}, !- Default Schedule Set Name
  {861b1247-583e-4588-9e74-0baa7414365a}, !- Group Rendering Name
  {2d94087e-25c0-45c4-8c6f-325a5239f8f4}, !- Design Specification Outdoor Air Object Name
  GasStation,                             !- Standards Building Type
  Restroom;                               !- Standards Space Type

OS:Rendering:Color,
  {861b1247-583e-4588-9e74-0baa7414365a}, !- Handle
  Rendering Color 2,                      !- Name
  169,                                    !- Rendering Red Value
  169,                                    !- Rendering Green Value
  31;                                     !- Rendering Blue Value

OS:SpaceType,
  {0b1995b4-89b4-40c6-aa37-ad4bf8bf22c9}, !- Handle
  GasStation|ClosedOffice|DOE Ref 2004|ASHRAE 169-2006-5A, !- Name
  {3162a677-8b80-4ec8-95f7-f9c69500f0ea}, !- Default Construction Set Name
  {4ec2fcbc-6429-4326-a17e-f0aa6461d098}, !- Default Schedule Set Name
  {83c59ff8-f999-4127-a07e-d1575edea2d4}, !- Group Rendering Name
  {9bb58681-176e-4959-b20d-a29288fd5f02}, !- Design Specification Outdoor Air Object Name
  GasStation,                             !- Standards Building Type
  ClosedOffice;                           !- Standards Space Type

OS:Rendering:Color,
  {83c59ff8-f999-4127-a07e-d1575edea2d4}, !- Handle
  Rendering Color 3,                      !- Name
  120,                                    !- Rendering Red Value
  230,                                    !- Rendering Green Value
  199;                                    !- Rendering Blue Value

OS:Schedule:Ruleset,
  {dafd4436-8398-4333-8386-b36daf91bebe}, !- Handle
  0600|2000|GasStation|default|hoo,       !- Name
  {d471ae3e-4081-4e2f-9388-83a7158f44aa}, !- Schedule Type Limits Name
  {0815cbe5-bd77-4bad-b04e-ed178a4b94a4}, !- Default Day Schedule Name
  {2d931456-c92a-43ff-b00a-6936d0e3fd41}, !- Summer Design Day Schedule Name
  {80204f58-e49b-4331-b2c3-8fe748962bf0}; !- Winter Design Day Schedule Name

OS:Schedule:Day,
  {0815cbe5-bd77-4bad-b04e-ed178a4b94a4}, !- Handle
  0600|2000|GasStation|default|hoo Schedule Week Day, !- Name
  {d471ae3e-4081-4e2f-9388-83a7158f44aa}, !- Schedule Type Limits Name
  ,                                       !- Interpolate to Timestep
  6,                                      !- Hour 1
  0,                                      !- Minute 1
  0,                                      !- Value Until Time 1
  20,                                     !- Hour 2
  0,                                      !- Minute 2
  1,                                      !- Value Until Time 2
  24,                                     !- Hour 3
  0,                                      !- Minute 3
  0;                                      !- Value Until Time 3

OS:Schedule:Day,
  {05329081-6778-4e1c-b457-1839fcc4a616}, !- Handle
  Schedule Day 2,                         !- Name
  ,                                       !- Schedule Type Limits Name
  ,                                       !- Interpolate to Timestep
  24,                                     !- Hour 1
  0,                                      !- Minute 1
  0;                                      !- Value Until Time 1

OS:Schedule:Day,
  {80204f58-e49b-4331-b2c3-8fe748962bf0}, !- Handle
  0600|2000|GasStation|default|hoo Winter Design Day, !- Name
  {d471ae3e-4081-4e2f-9388-83a7158f44aa}, !- Schedule Type Limits Name
  ,                                       !- Interpolate to Timestep
  24,                                     !- Hour 1
  0,                                      !- Minute 1
  0;                                      !- Value Until Time 1

OS:Schedule:Day,
  {39e7e218-3dab-4175-ba48-b4e0cd74ac81}, !- Handle
  Schedule Day 3,                         !- Name
  ,                                       !- Schedule Type Limits Name
  ,                                       !- Interpolate to Timestep
  24,                                     !- Hour 1
  0,                                      !- Minute 1
  0;                                      !- Value Until Time 1

OS:Schedule:Day,
  {2d931456-c92a-43ff-b00a-6936d0e3fd41}, !- Handle
  0600|2000|GasStation|default|hoo Summer Design Day, !- Name
  {d471ae3e-4081-4e2f-9388-83a7158f44aa}, !- Schedule Type Limits Name
  ,                                       !- Interpolate to Timestep
  24,                                     !- Hour 1
  0,                                      !- Minute 1
  1;                                      !- Value Until Time 1

OS:DefaultScheduleSet,
  {4beb6a52-74e3-4b96-8d38-0654d305bb37}, !- Handle
  Building Hours of Operation,            !- Name
  {dafd4436-8398-4333-8386-b36daf91bebe}, !- Hours of Operation Schedule Name
  ,                                       !- Number of People Schedule Name
  ,                                       !- People Activity Level Schedule Name
  ,                                       !- Lighting Schedule Name
  ,                                       !- Electric Equipment Schedule Name
  ,                                       !- Gas Equipment Schedule Name
  ,                                       !- Hot Water Equipment Schedule Name
  ,                                       !- Infiltration Schedule Name
  ,                                       !- Steam Equipment Schedule Name
  ;                                       !- Other Equipment Schedule Name

OS:ScheduleTypeLimits,
  {d471ae3e-4081-4e2f-9388-83a7158f44aa}, !- Handle
  OnOff,                                  !- Name
  0,                                      !- Lower Limit Value {BasedOnField A4}
  1,                                      !- Upper Limit Value {BasedOnField A4}
  Discrete,                               !- Numeric Type
  Availability;                           !- Unit Type

OS:Schedule:Ruleset,
  {1f79cc5d-7957-48a6-8cb3-b2e2feb3a592}, !- Handle
  0600|2000|GasStation|Retail|occ,        !- Name
  {c1b4ce1c-e8bb-4943-9687-2de6ff4c076d}, !- Schedule Type Limits Name
  {ffcddd21-cb87-4622-bf8b-e61d96bf73ee}, !- Default Day Schedule Name
  {223edcda-4e4c-436b-92e8-24fbf0914f24}, !- Summer Design Day Schedule Name
  {ec42bfba-bfbe-471c-8440-cc5ca2eae9ae}; !- Winter Design Day Schedule Name

OS:ScheduleTypeLimits,
  {c1b4ce1c-e8bb-4943-9687-2de6ff4c076d}, !- Handle
  Occupancy Schedule Type Limits,         !- Name
  0,                                      !- Lower Limit Value {BasedOnField A4}
  1,                                      !- Upper Limit Value {BasedOnField A4}
  Continuous,                             !- Numeric Type
  Dimensionless;                          !- Unit Type

OS:Schedule:Day,
  {ffcddd21-cb87-4622-bf8b-e61d96bf73ee}, !- Handle
  0600|2000|GasStation|Retail|occ |default, !- Name
  {c1b4ce1c-e8bb-4943-9687-2de6ff4c076d}, !- Schedule Type Limits Name
  ,                                       !- Interpolate to Timestep
  6,                                      !- Hour 1
  0,                                      !- Minute 1
  0,                                      !- Value Until Time 1
  7,                                      !- Hour 2
  0,                                      !- Minute 2
  0.1,                                    !- Value Until Time 2
  8,                                      !- Hour 3
  0,                                      !- Minute 3
  0.2,                                    !- Value Until Time 3
  10,                                     !- Hour 4
  0,                                      !- Minute 4
  0.5,                                    !- Value Until Time 4
  14,                                     !- Hour 5
  0,                                      !- Minute 5
  0.7,                                    !- Value Until Time 5
  15,                                     !- Hour 6
  0,                                      !- Minute 6
  0.8,                                    !- Value Until Time 6
  16,                                     !- Hour 7
  0,                                      !- Minute 7
  0.7,                                    !- Value Until Time 7
  18,                                     !- Hour 8
  0,                                      !- Minute 8
  0.5,                                    !- Value Until Time 8
  20,                                     !- Hour 9
  0,                                      !- Minute 9
  0.3,                                    !- Value Until Time 9
  24,                                     !- Hour 10
  0,                                      !- Minute 10
  0;                                      !- Value Until Time 10

OS:Schedule:Day,
  {223edcda-4e4c-436b-92e8-24fbf0914f24}, !- Handle
  0600|2000|GasStation|Retail|occ Summer Design Day, !- Name
  {c1b4ce1c-e8bb-4943-9687-2de6ff4c076d}, !- Schedule Type Limits Name
  ,                                       !- Interpolate to Timestep
  6,                                      !- Hour 1
  0,                                      !- Minute 1
  0,                                      !- Value Until Time 1
  7,                                      !- Hour 2
  0,                                      !- Minute 2
  0.1,                                    !- Value Until Time 2
  8,                                      !- Hour 3
  0,                                      !- Minute 3
  0.2,                                    !- Value Until Time 3
  20,                                     !- Hour 4
  0,                                      !- Minute 4
  1,                                      !- Value Until Time 4
  24,                                     !- Hour 5
  0,                                      !- Minute 5
  0;                                      !- Value Until Time 5

OS:Schedule:Day,
  {ec42bfba-bfbe-471c-8440-cc5ca2eae9ae}, !- Handle
  0600|2000|GasStation|Retail|occ Winter Design Day, !- Name
  {c1b4ce1c-e8bb-4943-9687-2de6ff4c076d}, !- Schedule Type Limits Name
  ,                                       !- Interpolate to Timestep
  24,                                     !- Hour 1
  0,                                      !- Minute 1
  0;                                      !- Value Until Time 1

OS:Schedule:Rule,
  {ab2b21fb-b6ce-4faa-a233-65488d93b708}, !- Handle
  0600|2000|GasStation|Retail|occ |1/1-12/31|Sat Rule, !- Name
  {1f79cc5d-7957-48a6-8cb3-b2e2feb3a592}, !- Schedule Ruleset Name
  0,                                      !- Rule Order
  {0570cd75-6ad7-456a-9c22-b44846b23180}, !- Day Schedule Name
  ,                                       !- Apply Sunday
  ,                                       !- Apply Monday
  ,                                       !- Apply Tuesday
  ,                                       !- Apply Wednesday
  ,                                       !- Apply Thursday
  ,                                       !- Apply Friday
  Yes,                                    !- Apply Saturday
  ,                                       !- Apply Holiday
  DateRange,                              !- Date Specification Type
  1,                                      !- Start Month
  1,                                      !- Start Day
  12,                                     !- End Month
  31;                                     !- End Day

OS:Schedule:Day,
  {0570cd75-6ad7-456a-9c22-b44846b23180}, !- Handle
  0600|2000|GasStation|Retail|occ |1/1-12/31|Sat, !- Name
  {c1b4ce1c-e8bb-4943-9687-2de6ff4c076d}, !- Schedule Type Limits Name
  ,                                       !- Interpolate to Timestep
  6,                                      !- Hour 1
  0,                                      !- Minute 1
  0,                                      !- Value Until Time 1
  7,                                      !- Hour 2
  0,                                      !- Minute 2
  0.1,                                    !- Value Until Time 2
  8,                                      !- Hour 3
  0,                                      !- Minute 3
  0.2,                                    !- Value Until Time 3
  9,                                      !- Hour 4
  0,                                      !- Minute 4
  0.5,                                    !- Value Until Time 4
  10,                                     !- Hour 5
  0,                                      !- Minute 5
  0.6,                                    !- Value Until Time 5
  16,                                     !- Hour 6
  0,                                      !- Minute 6
  0.8,                                    !- Value Until Time 6
  17,                                     !- Hour 7
  0,                                      !- Minute 7
  0.6,                                    !- Value Until Time 7
  20,                                     !- Hour 8
  0,                                      !- Minute 8
  0.2,                                    !- Value Until Time 8
  21,                                     !- Hour 9
  0,                                      !- Minute 9
  0.1,                                    !- Value Until Time 9
  24,                                     !- Hour 10
  0,                                      !- Minute 10
  0;                                      !- Value Until Time 10

OS:Schedule:Rule,
  {5a948294-2f87-4d2b-8824-554b6c726c22}, !- Handle
  0600|2000|GasStation|Retail|occ |1/1-12/31|Sun Rule, !- Name
  {1f79cc5d-7957-48a6-8cb3-b2e2feb3a592}, !- Schedule Ruleset Name
  1,                                      !- Rule Order
  {a942de07-afff-4db7-8bcb-abe65a939036}, !- Day Schedule Name
  Yes,                                    !- Apply Sunday
  ,                                       !- Apply Monday
  ,                                       !- Apply Tuesday
  ,                                       !- Apply Wednesday
  ,                                       !- Apply Thursday
  ,                                       !- Apply Friday
  ,                                       !- Apply Saturday
  ,                                       !- Apply Holiday
  DateRange,                              !- Date Specification Type
  1,                                      !- Start Month
  1,                                      !- Start Day
  12,                                     !- End Month
  31;                                     !- End Day

OS:Schedule:Day,
  {a942de07-afff-4db7-8bcb-abe65a939036}, !- Handle
  0600|2000|GasStation|Retail|occ |1/1-12/31|Sun, !- Name
  {c1b4ce1c-e8bb-4943-9687-2de6ff4c076d}, !- Schedule Type Limits Name
  ,                                       !- Interpolate to Timestep
  8,                                      !- Hour 1
  0,                                      !- Minute 1
  0,                                      !- Value Until Time 1
  9,                                      !- Hour 2
  0,                                      !- Minute 2
  0.1,                                    !- Value Until Time 2
  11,                                     !- Hour 3
  0,                                      !- Minute 3
  0.2,                                    !- Value Until Time 3
  16,                                     !- Hour 4
  0,                                      !- Minute 4
  0.4,                                    !- Value Until Time 4
  17,                                     !- Hour 5
  0,                                      !- Minute 5
  0.2,                                    !- Value Until Time 5
  18,                                     !- Hour 6
  0,                                      !- Minute 6
  0.1,                                    !- Value Until Time 6
  24,                                     !- Hour 7
  0,                                      !- Minute 7
  0;                                      !- Value Until Time 7

OS:Schedule:Ruleset,
  {8d99941f-37fa-4291-b7f3-e74595606a82}, !- Handle
  0600|2000|GasStation|default|swh_target_temp, !- Name
  {9c6933e3-ffff-4cb9-9663-2680cc8e484c}, !- Schedule Type Limits Name
  {888c953f-a327-4bf2-ba8e-147c5af78309}, !- Default Day Schedule Name
  {16ce3a50-97cf-4031-a256-75e8b8613c75}, !- Summer Design Day Schedule Name
  {38ad34ec-f0d0-431b-bd63-89f48a00a008}; !- Winter Design Day Schedule Name

OS:ScheduleTypeLimits,
  {9c6933e3-ffff-4cb9-9663-2680cc8e484c}, !- Handle
  Temperature Schedule Type Limits,       !- Name
  ,                                       !- Lower Limit Value {BasedOnField A4}
  ,                                       !- Upper Limit Value {BasedOnField A4}
  Continuous,                             !- Numeric Type
  Temperature;                            !- Unit Type

OS:Schedule:Day,
  {888c953f-a327-4bf2-ba8e-147c5af78309}, !- Handle
  0600|2000|GasStation|default|swh_target_temp |default, !- Name
  {9c6933e3-ffff-4cb9-9663-2680cc8e484c}, !- Schedule Type Limits Name
  ,                                       !- Interpolate to Timestep
  24,                                     !- Hour 1
  0,                                      !- Minute 1
  71.1111111111111;                       !- Value Until Time 1

OS:Schedule:Day,
  {16ce3a50-97cf-4031-a256-75e8b8613c75}, !- Handle
  0600|2000|GasStation|default|swh_target_temp Summer Design Day, !- Name
  {9c6933e3-ffff-4cb9-9663-2680cc8e484c}, !- Schedule Type Limits Name
  ,                                       !- Interpolate to Timestep
  24,                                     !- Hour 1
  0,                                      !- Minute 1
  71.1111111111111;                       !- Value Until Time 1

OS:Schedule:Day,
  {38ad34ec-f0d0-431b-bd63-89f48a00a008}, !- Handle
  0600|2000|GasStation|default|swh_target_temp Winter Design Day, !- Name
  {9c6933e3-ffff-4cb9-9663-2680cc8e484c}, !- Schedule Type Limits Name
  ,                                       !- Interpolate to Timestep
  24,                                     !- Hour 1
  0,                                      !- Minute 1
  71.1111111111111;                       !- Value Until Time 1

OS:Schedule:Ruleset,
  {00435d5b-2c0a-46e5-a121-a1acc0532eca}, !- Handle
  0600|2000|GasStation|default|elec_equip, !- Name
  {57eed0ef-0731-45b7-b187-b298b9fe3a0d}, !- Schedule Type Limits Name
  {cfa598e3-d363-487d-93c7-3ec873f85577}, !- Default Day Schedule Name
  {5673e329-c109-401b-b582-b3514dd3321c}, !- Summer Design Day Schedule Name
  {d9e501ca-070f-48eb-b4f2-bd1d3a6fb540}; !- Winter Design Day Schedule Name

OS:ScheduleTypeLimits,
  {57eed0ef-0731-45b7-b187-b298b9fe3a0d}, !- Handle
  Equipment Schedule Type Limits,         !- Name
  0,                                      !- Lower Limit Value {BasedOnField A4}
  1,                                      !- Upper Limit Value {BasedOnField A4}
  Continuous,                             !- Numeric Type
  Dimensionless;                          !- Unit Type

OS:Schedule:Day,
  {cfa598e3-d363-487d-93c7-3ec873f85577}, !- Handle
  0600|2000|GasStation|default|elec_equip |default, !- Name
  {57eed0ef-0731-45b7-b187-b298b9fe3a0d}, !- Schedule Type Limits Name
  ,                                       !- Interpolate to Timestep
  6,                                      !- Hour 1
  0,                                      !- Minute 1
  0.4,                                    !- Value Until Time 1
  10,                                     !- Hour 2
  0,                                      !- Minute 2
  0.9,                                    !- Value Until Time 2
  11,                                     !- Hour 3
  0,                                      !- Minute 3
  0.8,                                    !- Value Until Time 3
  19,                                     !- Hour 4
  0,                                      !- Minute 4
  0.9,                                    !- Value Until Time 4
  19,                                     !- Hour 5
  30,                                     !- Minute 5
  0.78,                                   !- Value Until Time 5
  20,                                     !- Hour 6
  0,                                      !- Minute 6
  0.65,                                   !- Value Until Time 6
  20,                                     !- Hour 7
  30,                                     !- Minute 7
  0.53,                                   !- Value Until Time 7
  24,                                     !- Hour 8
  0,                                      !- Minute 8
  0.4;                                    !- Value Until Time 8

OS:Schedule:Day,
  {5673e329-c109-401b-b582-b3514dd3321c}, !- Handle
  0600|2000|GasStation|default|elec_equip Summer Design Day, !- Name
  {57eed0ef-0731-45b7-b187-b298b9fe3a0d}, !- Schedule Type Limits Name
  ,                                       !- Interpolate to Timestep
  24,                                     !- Hour 1
  0,                                      !- Minute 1
  1;                                      !- Value Until Time 1

OS:Schedule:Day,
  {d9e501ca-070f-48eb-b4f2-bd1d3a6fb540}, !- Handle
  0600|2000|GasStation|default|elec_equip Winter Design Day, !- Name
  {57eed0ef-0731-45b7-b187-b298b9fe3a0d}, !- Schedule Type Limits Name
  ,                                       !- Interpolate to Timestep
  24,                                     !- Hour 1
  0,                                      !- Minute 1
  0.4;                                    !- Value Until Time 1

OS:Schedule:Rule,
  {e181e475-e756-4257-9aef-28cc31371d73}, !- Handle
  0600|2000|GasStation|default|elec_equip |1/1-12/31|Sun Rule, !- Name
  {00435d5b-2c0a-46e5-a121-a1acc0532eca}, !- Schedule Ruleset Name
  0,                                      !- Rule Order