
OS:Version,
  {2fe02c57-c104-4d63-9083-2d271f2a272d}, !- Handle
  1.5.5;                                  !- Version Identifier

OS:ClimateZones,
  {135edfab-17e7-40db-a436-27d385a8cd6d}, !- Handle
  ,                                       !- Active Institution
  ,                                       !- Active Year
  ASHRAE,                                 !- Climate Zone Institution Name 1
  ANSI/ASHRAE Standard 169,               !- Climate Zone Document Name 1
  2006,                                   !- Climate Zone Document Year 1
  ,                                       !- Climate Zone Value 1
  CEC,                                    !- Climate Zone Institution Name 2
  California Climate Zone Descriptions,   !- Climate Zone Document Name 2
  1995,                                   !- Climate Zone Document Year 2
  ;                                       !- Climate Zone Value 2

OS:YearDescription,
  {513d8dda-86cb-442a-b01c-1f7f0e0ac70e}; !- Handle

OS:RadianceParameters,
  {270a96f1-3c86-4b75-a667-cdf22790e2c8}, !- Handle
  1,                                      !- Accumulated Rays per Record
  0,                                      !- Direct Threshold
  1,                                      !- Direct Certainty
  1,                                      !- Direct Jitter
  1,                                      !- Direct Pretest
  6,                                      !- Ambient Bounces VMX
  2,                                      !- Ambient Bounces DMX
  4050,                                   !- Ambient Divisions VMX
  512,                                    !- Ambient Divisions DMX
  256,                                    !- Ambient Supersamples
  0.001,                                  !- Limit Weight VMX
  0.001,                                  !- Limit Weight DMX
  500,                                    !- Klems Sampling Density
  146;                                    !- Sky Discretization Resolution

OS:SimulationControl,
  {2c487a4c-bac9-4ac5-b669-1e49d9da7c2b}, !- Handle
  ,                                       !- Do Zone Sizing Calculation
  ,                                       !- Do System Sizing Calculation
  ,                                       !- Do Plant Sizing Calculation
  No,                                     !- Run Simulation for Sizing Periods
  ,                                       !- Run Simulation for Weather File Run Periods
  0.04,                                   !- Loads Convergence Tolerance Value
  ,                                       !- Temperature Convergence Tolerance Value {deltaC}
  ,                                       !- Solar Distribution
  ,                                       !- Maximum Number of Warmup Days
  2;                                      !- Minimum Number of Warmup Days

OS:Sizing:Parameters,
  {dde5af6f-7923-4600-a28a-7556673a0266}, !- Handle
  1.25,                                   !- Heating Sizing Factor
  1.15;                                   !- Cooling Sizing Factor

OS:ProgramControl,
  {05027a99-f2b3-4aeb-afc6-1425fbb4371d}; !- Handle

OS:Timestep,
  {4ebc9f1e-4707-402e-9844-67eb1ffbd522}, !- Handle
  2;                                      !- Number of Timesteps per Hour

OS:OutputControl:ReportingTolerances,
  {65797aa2-06a9-45fe-b69d-bc6e060399d3}; !- Handle

OS:ConvergenceLimits,
  {9fc11aba-8822-4f3d-970c-46391ba4040d}; !- Handle

OS:ShadowCalculation,
  {ca758bea-4416-4626-9bba-3d8795c79bd6}, !- Handle
  7,                                      !- Calculation Frequency
  15000;                                  !- Maximum Figures in Shadow Overlap Calculations

OS:SurfaceConvectionAlgorithm:Inside,
  {aaabfc36-718a-4ab0-b622-f186ebb45230}, !- Handle
  TARP;                                   !- Algorithm

OS:SurfaceConvectionAlgorithm:Outside,
  {9a0a9f6f-4bbd-4b12-a121-9492a1fcd7d6}, !- Handle
  DOE-2;                                  !- Algorithm

OS:HeatBalanceAlgorithm,
  {9d93e563-e1e0-46d7-9e39-d1c8aceb7212}, !- Handle
  ConductionTransferFunction,             !- Algorithm
  200;                                    !- Surface Temperature Upper Limit {F}

OS:ZoneAirHeatBalanceAlgorithm,
  {8520d93e-310f-4696-9bcd-36228bfdd743}, !- Handle
  AnalyticalSolution;                     !- Algorithm

OS:ZoneAirContaminantBalance,
  {eb5fc3ae-fb22-4160-8fcb-3e3b22b000d3}; !- Handle

OS:ZoneCapacitanceMultiplier:ResearchSpecial,
  {4020ce4f-5a7a-4849-8028-8305d7b751b1}, !- Handle
  ,                                       !- Temperature Capacity Multiplier
  ,                                       !- Humidity Capacity Multiplier
  ;                                       !- Carbon Dioxide Capacity Multiplier

OS:RunPeriod,
  {28df894d-6af9-4fb8-8f56-df1753344aa3}, !- Handle
  Run Period 1,                           !- Name
  1,                                      !- Begin Month
  1,                                      !- Begin Day of Month
  12,                                     !- End Month
  31,                                     !- End Day of Month
  ,                                       !- Use Weather File Holidays and Special Days
  ,                                       !- Use Weather File Daylight Saving Period
  ,                                       !- Apply Weekend Holiday Rule
  ,                                       !- Use Weather File Rain Indicators
  ,                                       !- Use Weather File Snow Indicators
  ;                                       !- Number of Times Runperiod to be Repeated

OS:Building,
  {bf305633-c5a1-4881-9edf-ca5e1a8e1274}, !- Handle
  Building 1,                             !- Name
  ,                                       !- Building Sector Type
  ,                                       !- North Axis {deg}
  ,                                       !- Nominal Floor to Floor Height {m}
  ,                                       !- Space Type Name
  ,                                       !- Default Construction Set Name
  {865f4937-4f39-4039-aeff-5570a2c617b2}, !- Default Schedule Set Name
  ,                                       !- Standards Number of Stories
  ,                                       !- Standards Number of Above Ground Stories
  GasStation;                             !- Standards Building Type

OS:LifeCycleCost:Parameters,
  {231cf8a0-f0e7-4251-a99f-11f0d464e661}, !- Handle
  FEMP,                                   !- Analysis Type
  ,                                       !- Discounting Convention
  ,                                       !- Inflation Approach
  ,                                       !- Real Discount Rate
  ,                                       !- Nominal Discount Rate
  ,                                       !- Inflation
  ,                                       !- Base Date Month
  ,                                       !- Base Date Year
  ,                                       !- Service Date Month
  ,                                       !- Service Date Year
  ,                                       !- Length of Study Period in Years
  ,                                       !- Tax Rate
  ,                                       !- Depreciation Method
  Yes;                                    !- Use NIST Fuel Escalation Rates

OS:Facility,
  {3ba8e45b-b833-44eb-a723-ea6c3946dc96}; !- Handle

OS:SpaceType,
  {300d5e0d-bfdf-41aa-b879-9fcff73a956c}, !- Handle
  GasStation|Retail|DOE Ref Pre-1980|ASHRAE 169-2006-5A, !- Name
  {d4ff920e-422e-4f8d-ab28-e6ec7d2faa6f}, !- Default Construction Set Name
  {928754e3-9620-4370-999f-919f33af7965}, !- Default Schedule Set Name
  {e0651186-deca-4dab-9d02-e507cc68aace}, !- Group Rendering Name
  {91c60728-45a9-408c-b935-9730aac249f8}, !- Design Specification Outdoor Air Object Name
  GasStation,                             !- Standards Building Type
  Retail;                                 !- Standards Space Type

OS:Rendering:Color,
  {e0651186-deca-4dab-9d02-e507cc68aace}, !- Handle
  Rendering Color 1,                      !- Name
  171,                                    !- Rendering Red Value
  222,                                    !- Rendering Green Value
  78;                                     !- Rendering Blue Value

OS:SpaceType,
  {60e3cfae-b45b-4e87-baa4-0e86eb348ac0}, !- Handle
  GasStation|Restroom|DOE Ref Pre-1980|ASHRAE 169-2006-5A, !- Name
  {d4ff920e-422e-4f8d-ab28-e6ec7d2faa6f}, !- Default Construction Set Name
  {a87ace8b-97b5-4e19-96b0-c4bdfc457cfd}, !- Default Schedule Set Name
  {fcffe114-db7b-4eab-bdd3-4ba3c50837a5}, !- Group Rendering Name
  {4abdaba5-66a0-44d7-ad3d-6f805581f9eb}, !- Design Specification Outdoor Air Object Name
  GasStation,                             !- Standards Building Type
  Restroom;                               !- Standards Space Type

OS:Rendering:Color,
  {fcffe114-db7b-4eab-bdd3-4ba3c50837a5}, !- Handle
  Rendering Color 2,                      !- Name
  169,                                    !- Rendering Red Value
  169,                                    !- Rendering Green Value
  31;                                     !- Rendering Blue Value

OS:SpaceType,
  {75f9023c-443e-4e5f-b3cb-7d7d641655a2}, !- Handle
  GasStation|ClosedOffice|DOE Ref Pre-1980|ASHRAE 169-2006-5A, !- Name
  {d4ff920e-422e-4f8d-ab28-e6ec7d2faa6f}, !- Default Construction Set Name
  {4cd07936-eb7e-4400-8b0b-08b77399c727}, !- Default Schedule Set Name
  {08616d9d-5aba-4954-9e25-e0fbf66d839e}, !- Group Rendering Name
  {9b505ad3-8009-4819-babb-2444b068c2cb}, !- Design Specification Outdoor Air Object Name
  GasStation,                             !- Standards Building Type
  ClosedOffice;                           !- Standards Space Type

OS:Rendering:Color,
  {08616d9d-5aba-4954-9e25-e0fbf66d839e}, !- Handle
  Rendering Color 3,                      !- Name
  120,                                    !- Rendering Red Value
  230,                                    !- Rendering Green Value
  199;                                    !- Rendering Blue Value

OS:Schedule:Ruleset,
  {5a4e9bb5-55d7-4661-a600-db80a24fff6b}, !- Handle
  0600|2000|GasStation|default|hoo,       !- Name
  {9b2d5ca7-b601-4554-9b4c-c5b095432216}, !- Schedule Type Limits Name
  {178df1e1-6579-4e70-a29a-64363f8cbc85}, !- Default Day Schedule Name
  {82b0f413-c02f-41d5-9f4c-c8438f382cb7}, !- Summer Design Day Schedule Name
  {4c875979-aca3-46dd-bb58-217f7c6a4679}; !- Winter Design Day Schedule Name

OS:Schedule:Day,
  {178df1e1-6579-4e70-a29a-64363f8cbc85}, !- Handle
  0600|2000|GasStation|default|hoo Schedule Week Day, !- Name
  {9b2d5ca7-b601-4554-9b4c-c5b095432216}, !- Schedule Type Limits Name
  ,                                       !- Interpolate to Timestep
  6,                                      !- Hour 1
  0,                                      !- Minute 1
  0,                                      !- Value Until Time 1
  20,                                     !- Hour 2
  0,                                      !- Minute 2
  1,                                      !- Value Until Time 2
  24,                                     !- Hour 3
  0,                                      !- Minute 3
  0;                                      !- Value Until Time 3

OS:Schedule:Day,
  {c34c37a4-657c-4727-b66f-afbee827bf2f}, !- Handle
  Schedule Day 2,                         !- Name
  ,                                       !- Schedule Type Limits Name
  ,                                       !- Interpolate to Timestep
  24,                                     !- Hour 1
  0,                                      !- Minute 1
  0;                                      !- Value Until Time 1

OS:Schedule:Day,
  {4c875979-aca3-46dd-bb58-217f7c6a4679}, !- Handle
  0600|2000|GasStation|default|hoo Winter Design Day, !- Name
  {9b2d5ca7-b601-4554-9b4c-c5b095432216}, !- Schedule Type Limits Name
  ,                                       !- Interpolate to Timestep
  24,                                     !- Hour 1
  0,                                      !- Minute 1
  0;                                      !- Value Until Time 1

OS:Schedule:Day,
  {cdfe2824-5591-4fdb-aaeb-7ed6ad210a55}, !- Handle
  Schedule Day 3,                         !- Name
  ,                                       !- Schedule Type Limits Name
  ,                                       !- Interpolate to Timestep
  24,                                     !- Hour 1
  0,                                      !- Minute 1
  0;                                      !- Value Until Time 1

OS:Schedule:Day,
  {82b0f413-c02f-41d5-9f4c-c8438f382cb7}, !- Handle
  0600|2000|GasStation|default|hoo Summer Design Day, !- Name
  {9b2d5ca7-b601-4554-9b4c-c5b095432216}, !- Schedule Type Limits Name
  ,                                       !- Interpolate to Timestep
  24,                                     !- Hour 1
  0,                                      !- Minute 1
  1;                                      !- Value Until Time 1

OS:DefaultScheduleSet,
  {865f4937-4f39-4039-aeff-5570a2c617b2}, !- Handle
  Building Hours of Operation,            !- Name
  {5a4e9bb5-55d7-4661-a600-db80a24fff6b}, !- Hours of Operation Schedule Name
  ,                                       !- Number of People Schedule Name
  ,                                       !- People Activity Level Schedule Name
  ,                                       !- Lighting Schedule Name
  ,                                       !- Electric Equipment Schedule Name
  ,                                       !- Gas Equipment Schedule Name
  ,                                       !- Hot Water Equipment Schedule Name
  ,                                       !- Infiltration Schedule Name
  ,                                       !- Steam Equipment Schedule Name
  ;                                       !- Other Equipment Schedule Name

OS:ScheduleTypeLimits,
  {9b2d5ca7-b601-4554-9b4c-c5b095432216}, !- Handle
  OnOff,                                  !- Name
  0,                                      !- Lower Limit Value {BasedOnField A4}
  1,                                      !- Upper Limit Value {BasedOnField A4}
  Discrete,                               !- Numeric Type
  Availability;                           !- Unit Type

OS:Schedule:Ruleset,
  {1e462843-e304-4dfa-8550-5369696998f2}, !- Handle
  0600|2000|GasStation|Retail|occ,        !- Name
  {c54ea109-10fc-49e8-9311-7797721c7fcc}, !- Schedule Type Limits Name
  {008c972a-4493-49a8-9415-54264d7eba7e}, !- Default Day Schedule Name
  {55db95bc-8823-42c0-9b8b-c680183c576a}, !- Summer Design Day Schedule Name
  {c33e75a7-f358-48a3-b4be-aea27253b3be}; !- Winter Design Day Schedule Name

OS:ScheduleTypeLimits,
  {c54ea109-10fc-49e8-9311-7797721c7fcc}, !- Handle
  Occupancy Schedule Type Limits,         !- Name
  0,                                      !- Lower Limit Value {BasedOnField A4}
  1,                                      !- Upper Limit Value {BasedOnField A4}
  Continuous,                             !- Numeric Type
  Dimensionless;                          !- Unit Type

OS:Schedule:Day,
  {008c972a-4493-49a8-9415-54264d7eba7e}, !- Handle
  0600|2000|GasStation|Retail|occ |default, !- Name
  {c54ea109-10fc-49e8-9311-7797721c7fcc}, !- Schedule Type Limits Name
  ,                                       !- Interpolate to Timestep
  6,                                      !- Hour 1
  0,                                      !- Minute 1
  0,                                      !- Value Until Time 1
  7,                                      !- Hour 2
  0,                                      !- Minute 2
  0.1,                                    !- Value Until Time 2
  8,                                      !- Hour 3
  0,                                      !- Minute 3
  0.2,                                    !- Value Until Time 3
  10,                                     !- Hour 4
  0,                                      !- Minute 4
  0.5,                                    !- Value Until Time 4
  14,                                     !- Hour 5
  0,                                      !- Minute 5
  0.7,                                    !- Value Until Time 5
  15,                                     !- Hour 6
  0,                                      !- Minute 6
  0.8,                                    !- Value Until Time 6
  16,                                     !- Hour 7
  0,                                      !- Minute 7
  0.7,                                    !- Value Until Time 7
  18,                                     !- Hour 8
  0,                                      !- Minute 8
  0.5,                                    !- Value Until Time 8
  20,                                     !- Hour 9
  0,                                      !- Minute 9
  0.3,                                    !- Value Until Time 9
  24,                                     !- Hour 10
  0,                                      !- Minute 10
  0;                                      !- Value Until Time 10

OS:Schedule:Day,
  {55db95bc-8823-42c0-9b8b-c680183c576a}, !- Handle
  0600|2000|GasStation|Retail|occ Summer Design Day, !- Name
  {c54ea109-10fc-49e8-9311-7797721c7fcc}, !- Schedule Type Limits Name
  ,                                       !- Interpolate to Timestep
  6,                                      !- Hour 1
  0,                                      !- Minute 1
  0,                                      !- Value Until Time 1
  7,                                      !- Hour 2
  0,                                      !- Minute 2
  0.1,                                    !- Value Until Time 2
  8,                                      !- Hour 3
  0,                                      !- Minute 3
  0.2,                                    !- Value Until Time 3
  20,                                     !- Hour 4
  0,                                      !- Minute 4
  1,                                      !- Value Until Time 4
  24,                                     !- Hour 5
  0,                                      !- Minute 5
  0;                                      !- Value Until Time 5

OS:Schedule:Day,
  {c33e75a7-f358-48a3-b4be-aea27253b3be}, !- Handle
  0600|2000|GasStation|Retail|occ Winter Design Day, !- Name
  {c54ea109-10fc-49e8-9311-7797721c7fcc}, !- Schedule Type Limits Name
  ,                                       !- Interpolate to Timestep
  24,                                     !- Hour 1
  0,                                      !- Minute 1
  0;                                      !- Value Until Time 1

OS:Schedule:Rule,
  {76b83cdd-b889-47a0-bbd2-2a9a31d10a3c}, !- Handle
  0600|2000|GasStation|Retail|occ |1/1-12/31|Sat Rule, !- Name
  {1e462843-e304-4dfa-8550-5369696998f2}, !- Schedule Ruleset Name
  0,                                      !- Rule Order
  {af6004c5-f117-48e7-9a8e-280d08530c89}, !- Day Schedule Name
  ,                                       !- Apply Sunday
  ,                                       !- Apply Monday
  ,                                       !- Apply Tuesday
  ,                                       !- Apply Wednesday
  ,                                       !- Apply Thursday
  ,                                       !- Apply Friday
  Yes,                                    !- Apply Saturday
  ,                                       !- Apply Holiday
  DateRange,                              !- Date Specification Type
  1,                                      !- Start Month
  1,                                      !- Start Day
  12,                                     !- End Month
  31;                                     !- End Day

OS:Schedule:Day,
  {af6004c5-f117-48e7-9a8e-280d08530c89}, !- Handle
  0600|2000|GasStation|Retail|occ |1/1-12/31|Sat, !- Name
  {c54ea109-10fc-49e8-9311-7797721c7fcc}, !- Schedule Type Limits Name
  ,                                       !- Interpolate to Timestep
  6,                                      !- Hour 1
  0,                                      !- Minute 1
  0,                                      !- Value Until Time 1
  7,                                      !- Hour 2
  0,                                      !- Minute 2
  0.1,                                    !- Value Until Time 2
  8,                                      !- Hour 3
  0,                                      !- Minute 3
  0.2,                                    !- Value Until Time 3
  9,                                      !- Hour 4
  0,                                      !- Minute 4
  0.5,                                    !- Value Until Time 4
  10,                                     !- Hour 5
  0,                                      !- Minute 5
  0.6,                                    !- Value Until Time 5
  16,                                     !- Hour 6
  0,                                      !- Minute 6
  0.8,                                    !- Value Until Time 6
  17,                                     !- Hour 7
  0,                                      !- Minute 7
  0.6,                                    !- Value Until Time 7
  20,                                     !- Hour 8
  0,                                      !- Minute 8
  0.2,                                    !- Value Until Time 8
  21,                                     !- Hour 9
  0,                                      !- Minute 9
  0.1,                                    !- Value Until Time 9
  24,                                     !- Hour 10
  0,                                      !- Minute 10
  0;                                      !- Value Until Time 10

OS:Schedule:Rule,
  {e5ecf56f-8533-4edc-96cf-7a0e3dc66519}, !- Handle
  0600|2000|GasStation|Retail|occ |1/1-12/31|Sun Rule, !- Name
  {1e462843-e304-4dfa-8550-5369696998f2}, !- Schedule Ruleset Name
  1,                                      !- Rule Order
  {090480ae-c22b-4f47-855b-87f83e2120d4}, !- Day Schedule Name
  Yes,                                    !- Apply Sunday
  ,                                       !- Apply Monday
  ,                                       !- Apply Tuesday
  ,                                       !- Apply Wednesday
  ,                                       !- Apply Thursday
  ,                                       !- Apply Friday
  ,                                       !- Apply Saturday
  ,                                       !- Apply Holiday
  DateRange,                              !- Date Specification Type
  1,                                      !- Start Month
  1,                                      !- Start Day
  12,                                     !- End Month
  31;                                     !- End Day

OS:Schedule:Day,
  {090480ae-c22b-4f47-855b-87f83e2120d4}, !- Handle
  0600|2000|GasStation|Retail|occ |1/1-12/31|Sun, !- Name
  {c54ea109-10fc-49e8-9311-7797721c7fcc}, !- Schedule Type Limits Name
  ,                                       !- Interpolate to Timestep
  8,                                      !- Hour 1
  0,                                      !- Minute 1
  0,                                      !- Value Until Time 1
  9,                                      !- Hour 2
  0,                                      !- Minute 2
  0.1,                                    !- Value Until Time 2
  11,                                     !- Hour 3
  0,                                      !- Minute 3
  0.2,                                    !- Value Until Time 3
  16,                                     !- Hour 4
  0,                                      !- Minute 4
  0.4,                                    !- Value Until Time 4
  17,                                     !- Hour 5
  0,                                      !- Minute 5
  0.2,                                    !- Value Until Time 5
  18,                                     !- Hour 6
  0,                                      !- Minute 6
  0.1,                                    !- Value Until Time 6
  24,                                     !- Hour 7
  0,                                      !- Minute 7
  0;                                      !- Value Until Time 7

OS:Schedule:Ruleset,
  {0d0194bf-6472-4ecd-bc7c-34de04de9210}, !- Handle
  0600|2000|GasStation|default|swh_target_temp, !- Name
  {23183508-5e24-4afd-9a6a-795df58e6d4f}, !- Schedule Type Limits Name
  {d16209ca-323e-425f-9c17-a5267189fe7e}, !- Default Day Schedule Name
  {dffbf4e7-598e-44df-892a-02a8e3dfc3a1}, !- Summer Design Day Schedule Name
  {03d19f59-2907-4d8c-81e8-4afb2da0f52b}; !- Winter Design Day Schedule Name

OS:ScheduleTypeLimits,
  {23183508-5e24-4afd-9a6a-795df58e6d4f}, !- Handle
  Temperature Schedule Type Limits,       !- Name
  ,                                       !- Lower Limit Value {BasedOnField A4}
  ,                                       !- Upper Limit Value {BasedOnField A4}
  Continuous,                             !- Numeric Type
  Temperature;                            !- Unit Type

OS:Schedule:Day,
  {d16209ca-323e-425f-9c17-a5267189fe7e}, !- Handle
  0600|2000|GasStation|default|swh_target_temp |default, !- Name
  {23183508-5e24-4afd-9a6a-795df58e6d4f}, !- Schedule Type Limits Name
  ,                                       !- Interpolate to Timestep
  24,                                     !- Hour 1
  0,                                      !- Minute 1
  71.1111111111111;                       !- Value Until Time 1

OS:Schedule:Day,
  {dffbf4e7-598e-44df-892a-02a8e3dfc3a1}, !- Handle
  0600|2000|GasStation|default|swh_target_temp Summer Design Day, !- Name
  {23183508-5e24-4afd-9a6a-795df58e6d4f}, !- Schedule Type Limits Name
  ,                                       !- Interpolate to Timestep
  24,                                     !- Hour 1
  0,                                      !- Minute 1
  71.1111111111111;                       !- Value Until Time 1

OS:Schedule:Day,
  {03d19f59-2907-4d8c-81e8-4afb2da0f52b}, !- Handle
  0600|2000|GasStation|default|swh_target_temp Winter Design Day, !- Name
  {23183508-5e24-4afd-9a6a-795df58e6d4f}, !- Schedule Type Limits Name
  ,                                       !- Interpolate to Timestep
  24,                                     !- Hour 1
  0,                                      !- Minute 1
  71.1111111111111;                       !- Value Until Time 1

OS:Schedule:Ruleset,
  {3743eaf0-2fcb-4c7c-8e87-9170624e19a9}, !- Handle
  0600|2000|GasStation|default|elec_equip, !- Name
  {911993a1-71e9-4e7b-ac72-9e8b6043960c}, !- Schedule Type Limits Name
  {ac55352d-3061-40fe-a087-06beebd817fe}, !- Default Day Schedule Name
  {da835928-c18a-4f4b-8cd3-2ec65578ec61}, !- Summer Design Day Schedule Name
  {19aadf28-49b5-448f-a019-d6978dccd60b}; !- Winter Design Day Schedule Name

OS:ScheduleTypeLimits,
  {911993a1-71e9-4e7b-ac72-9e8b6043960c}, !- Handle
  Equipment Schedule Type Limits,         !- Name
  0,                                      !- Lower Limit Value {BasedOnField A4}
  1,                                      !- Upper Limit Value {BasedOnField A4}
  Continuous,                             !- Numeric Type
  Dimensionless;                          !- Unit Type

OS:Schedule:Day,
  {ac55352d-3061-40fe-a087-06beebd817fe}, !- Handle
  0600|2000|GasStation|default|elec_equip |default, !- Name
  {911993a1-71e9-4e7b-ac72-9e8b6043960c}, !- Schedule Type Limits Name
  ,                                       !- Interpolate to Timestep
  6,                                      !- Hour 1
  0,                                      !- Minute 1
  0.4,                                    !- Value Until Time 1
  10,                                     !- Hour 2
  0,                                      !- Minute 2
  0.9,                                    !- Value Until Time 2
  11,                                     !- Hour 3
  0,                                      !- Minute 3
  0.8,                                    !- Value Until Time 3
  19,                                     !- Hour 4
  0,                                      !- Minute 4
  0.9,                                    !- Value Until Time 4
  19,                                     !- Hour 5
  30,                                     !- Minute 5
  0.78,                                   !- Value Until Time 5
  20,                                     !- Hour 6
  0,                                      !- Minute 6
  0.65,                                   !- Value Until Time 6
  20,                                     !- Hour 7
  30,                                     !- Minute 7
  0.53,                                   !- Value Until Time 7
  24,                                     !- Hour 8
  0,                                      !- Minute 8
  0.4;                                    !- Value Until Time 8

OS:Schedule:Day,
  {da835928-c18a-4f4b-8cd3-2ec65578ec61}, !- Handle
  0600|2000|GasStation|default|elec_equip Summer Design Day, !- Name
  {911993a1-71e9-4e7b-ac72-9e8b6043960c}, !- Schedule Type Limits Name
  ,                                       !- Interpolate to Timestep
  24,                                     !- Hour 1
  0,                                      !- Minute 1
  1;                                      !- Value Until Time 1

OS:Schedule:Day,
  {19aadf28-49b5-448f-a019-d6978dccd60b}, !- Handle
  0600|2000|GasStation|default|elec_equip Winter Design Day, !- Name
  {911993a1-71e9-4e7b-ac72-9e8b6043960c}, !- Schedule Type Limits Name
  ,                                       !- Interpolate to Timestep
  24,                                     !- Hour 1
  0,                                      !- Minute 1
  0.4;                                    !- Value Until Time 1

OS:Schedule:Rule,
  {a94c983f-e120-44b5-bcb8-cad844dabd21}, !- Handle
  0600|2000|GasStation|default|elec_equip |1/1-12/31|Sun Rule, !- Name
  {3743eaf0-2fcb-4c7c-8e87-9170624e19a9}, !- Schedule Ruleset Name
  0,                                      !- Rule Order