
OS:Version,
  {209ae2ce-1fad-441d-9f92-e08b77f20369}, !- Handle
  1.5.5;                                  !- Version Identifier

OS:ClimateZones,
  {135edfab-17e7-40db-a436-27d385a8cd6d}, !- Handle
  ,                                       !- Active Institution
  ,                                       !- Active Year
  ASHRAE,                                 !- Climate Zone Institution Name 1
  ANSI/ASHRAE Standard 169,               !- Climate Zone Document Name 1
  2006,                                   !- Climate Zone Document Year 1
  ,                                       !- Climate Zone Value 1
  CEC,                                    !- Climate Zone Institution Name 2
  California Climate Zone Descriptions,   !- Climate Zone Document Name 2
  1995,                                   !- Climate Zone Document Year 2
  ;                                       !- Climate Zone Value 2

OS:YearDescription,
  {513d8dda-86cb-442a-b01c-1f7f0e0ac70e}; !- Handle

OS:RadianceParameters,
  {270a96f1-3c86-4b75-a667-cdf22790e2c8}, !- Handle
  1,                                      !- Accumulated Rays per Record
  0,                                      !- Direct Threshold
  1,                                      !- Direct Certainty
  1,                                      !- Direct Jitter
  1,                                      !- Direct Pretest
  6,                                      !- Ambient Bounces VMX
  2,                                      !- Ambient Bounces DMX
  4050,                                   !- Ambient Divisions VMX
  512,                                    !- Ambient Divisions DMX
  256,                                    !- Ambient Supersamples
  0.001,                                  !- Limit Weight VMX
  0.001,                                  !- Limit Weight DMX
  500,                                    !- Klems Sampling Density
  146;                                    !- Sky Discretization Resolution

OS:SimulationControl,
  {2c487a4c-bac9-4ac5-b669-1e49d9da7c2b}, !- Handle
  ,                                       !- Do Zone Sizing Calculation
  ,                                       !- Do System Sizing Calculation
  ,                                       !- Do Plant Sizing Calculation
  No,                                     !- Run Simulation for Sizing Periods
  ,                                       !- Run Simulation for Weather File Run Periods
  0.04,                                   !- Loads Convergence Tolerance Value
  ,                                       !- Temperature Convergence Tolerance Value {deltaC}
  ,                                       !- Solar Distribution
  ,                                       !- Maximum Number of Warmup Days
  2;                                      !- Minimum Number of Warmup Days

OS:Sizing:Parameters,
  {dde5af6f-7923-4600-a28a-7556673a0266}, !- Handle
  1.25,                                   !- Heating Sizing Factor
  1.15;                                   !- Cooling Sizing Factor

OS:ProgramControl,
  {05027a99-f2b3-4aeb-afc6-1425fbb4371d}; !- Handle

OS:Timestep,
  {4ebc9f1e-4707-402e-9844-67eb1ffbd522}, !- Handle
  2;                                      !- Number of Timesteps per Hour

OS:OutputControl:ReportingTolerances,
  {65797aa2-06a9-45fe-b69d-bc6e060399d3}; !- Handle

OS:ConvergenceLimits,
  {9fc11aba-8822-4f3d-970c-46391ba4040d}; !- Handle

OS:ShadowCalculation,
  {ca758bea-4416-4626-9bba-3d8795c79bd6}, !- Handle
  7,                                      !- Calculation Frequency
  15000;                                  !- Maximum Figures in Shadow Overlap Calculations

OS:SurfaceConvectionAlgorithm:Inside,
  {aaabfc36-718a-4ab0-b622-f186ebb45230}, !- Handle
  TARP;                                   !- Algorithm

OS:SurfaceConvectionAlgorithm:Outside,
  {9a0a9f6f-4bbd-4b12-a121-9492a1fcd7d6}, !- Handle
  DOE-2;                                  !- Algorithm

OS:HeatBalanceAlgorithm,
  {9d93e563-e1e0-46d7-9e39-d1c8aceb7212}, !- Handle
  ConductionTransferFunction,             !- Algorithm
  200;                                    !- Surface Temperature Upper Limit {F}

OS:ZoneAirHeatBalanceAlgorithm,
  {8520d93e-310f-4696-9bcd-36228bfdd743}, !- Handle
  AnalyticalSolution;                     !- Algorithm

OS:ZoneAirContaminantBalance,
  {eb5fc3ae-fb22-4160-8fcb-3e3b22b000d3}; !- Handle

OS:ZoneCapacitanceMultiplier:ResearchSpecial,
  {4020ce4f-5a7a-4849-8028-8305d7b751b1}, !- Handle
  ,                                       !- Temperature Capacity Multiplier
  ,                                       !- Humidity Capacity Multiplier
  ;                                       !- Carbon Dioxide Capacity Multiplier

OS:RunPeriod,
  {28df894d-6af9-4fb8-8f56-df1753344aa3}, !- Handle
  Run Period 1,                           !- Name
  1,                                      !- Begin Month
  1,                                      !- Begin Day of Month
  12,                                     !- End Month
  31,                                     !- End Day of Month
  ,                                       !- Use Weather File Holidays and Special Days
  ,                                       !- Use Weather File Daylight Saving Period
  ,                                       !- Apply Weekend Holiday Rule
  ,                                       !- Use Weather File Rain Indicators
  ,                                       !- Use Weather File Snow Indicators
  ;                                       !- Number of Times Runperiod to be Repeated

OS:Building,
  {bf305633-c5a1-4881-9edf-ca5e1a8e1274}, !- Handle
  Building 1,                             !- Name
  ,                                       !- Building Sector Type
  ,                                       !- North Axis {deg}
  ,                                       !- Nominal Floor to Floor Height {m}
  ,                                       !- Space Type Name
  ,                                       !- Default Construction Set Name
  {3c00e27e-6f12-4d1d-ac0b-cbbf11ed4a9c}, !- Default Schedule Set Name
  ,                                       !- Standards Number of Stories
  ,                                       !- Standards Number of Above Ground Stories
  GasStation;                             !- Standards Building Type

OS:LifeCycleCost:Parameters,
  {231cf8a0-f0e7-4251-a99f-11f0d464e661}, !- Handle
  FEMP,                                   !- Analysis Type
  ,                                       !- Discounting Convention
  ,                                       !- Inflation Approach
  ,                                       !- Real Discount Rate
  ,                                       !- Nominal Discount Rate
  ,                                       !- Inflation
  ,                                       !- Base Date Month
  ,                                       !- Base Date Year
  ,                                       !- Service Date Month
  ,                                       !- Service Date Year
  ,                                       !- Length of Study Period in Years
  ,                                       !- Tax Rate
  ,                                       !- Depreciation Method
  Yes;                                    !- Use NIST Fuel Escalation Rates

OS:Facility,
  {3ba8e45b-b833-44eb-a723-ea6c3946dc96}; !- Handle

OS:SpaceType,
  {f5a2dcda-96c4-40c7-83b1-3d8e56b120cb}, !- Handle
  GasStation|Retail|DOE Ref 1980-2004|ASHRAE 169-2006-5A, !- Name
  {fc88aa0f-bfc6-4a9e-ae8e-ab8df6568d6d}, !- Default Construction Set Name
  {2f3bbcf8-2b0c-40ff-9f2a-774f1c2112fd}, !- Default Schedule Set Name
  {c5a41c4e-d451-4887-99f6-5f80a32736d9}, !- Group Rendering Name
  {944fa72d-3d69-44f0-9f4b-398ec0f2243d}, !- Design Specification Outdoor Air Object Name
  GasStation,                             !- Standards Building Type
  Retail;                                 !- Standards Space Type

OS:Rendering:Color,
  {c5a41c4e-d451-4887-99f6-5f80a32736d9}, !- Handle
  Rendering Color 1,                      !- Name
  171,                                    !- Rendering Red Value
  222,                                    !- Rendering Green Value
  78;                                     !- Rendering Blue Value

OS:SpaceType,
  {72730d3f-5f52-4c55-9870-31b570fd4901}, !- Handle
  GasStation|Restroom|DOE Ref 1980-2004|ASHRAE 169-2006-5A, !- Name
  {fc88aa0f-bfc6-4a9e-ae8e-ab8df6568d6d}, !- Default Construction Set Name
  {34dc5788-c356-4c41-abe8-333ebb0794cb}, !- Default Schedule Set Name
  {aa153170-fb91-40ec-9e4f-a26f0b6ee79c}, !- Group Rendering Name
  {f278af8d-fd2b-4eae-95c8-24048adebaa2}, !- Design Specification Outdoor Air Object Name
  GasStation,                             !- Standards Building Type
  Restroom;                               !- Standards Space Type

OS:Rendering:Color,
  {aa153170-fb91-40ec-9e4f-a26f0b6ee79c}, !- Handle
  Rendering Color 2,                      !- Name
  169,                                    !- Rendering Red Value
  169,                                    !- Rendering Green Value
  31;                                     !- Rendering Blue Value

OS:SpaceType,
  {3eab3d98-f47e-4415-bb95-472795446c5c}, !- Handle
  GasStation|ClosedOffice|DOE Ref 1980-2004|ASHRAE 169-2006-5A, !- Name
  {fc88aa0f-bfc6-4a9e-ae8e-ab8df6568d6d}, !- Default Construction Set Name
  {962063a7-2861-4cd6-a569-7471a82a226d}, !- Default Schedule Set Name
  {24a6b13e-ec22-4a02-983d-25ce2153622a}, !- Group Rendering Name
  {bde83ec2-7b74-4e68-9c6f-0ede9bc01d43}, !- Design Specification Outdoor Air Object Name
  GasStation,                             !- Standards Building Type
  ClosedOffice;                           !- Standards Space Type

OS:Rendering:Color,
  {24a6b13e-ec22-4a02-983d-25ce2153622a}, !- Handle
  Rendering Color 3,                      !- Name
  120,                                    !- Rendering Red Value
  230,                                    !- Rendering Green Value
  199;                                    !- Rendering Blue Value

OS:Schedule:Ruleset,
  {762ce497-e2eb-4e6f-b45e-b8dd1e14776a}, !- Handle
  0600|2000|GasStation|default|hoo,       !- Name
  {8f65197d-8887-44f4-8240-68d88d2546ae}, !- Schedule Type Limits Name
  {b01a81ea-b92a-442f-b041-7916cb98668d}, !- Default Day Schedule Name
  {7276aab1-1dbb-402a-a0cd-8fd71ac547ca}, !- Summer Design Day Schedule Name
  {3f88bc58-e0a1-43dd-b628-b8c13f63cb67}; !- Winter Design Day Schedule Name

OS:Schedule:Day,
  {b01a81ea-b92a-442f-b041-7916cb98668d}, !- Handle
  0600|2000|GasStation|default|hoo Schedule Week Day, !- Name
  {8f65197d-8887-44f4-8240-68d88d2546ae}, !- Schedule Type Limits Name
  ,                                       !- Interpolate to Timestep
  6,                                      !- Hour 1
  0,                                      !- Minute 1
  0,                                      !- Value Until Time 1
  20,                                     !- Hour 2
  0,                                      !- Minute 2
  1,                                      !- Value Until Time 2
  24,                                     !- Hour 3
  0,                                      !- Minute 3
  0;                                      !- Value Until Time 3

OS:Schedule:Day,
  {eca40575-326f-47fe-85a2-b76334ee3074}, !- Handle
  Schedule Day 2,                         !- Name
  ,                                       !- Schedule Type Limits Name
  ,                                       !- Interpolate to Timestep
  24,                                     !- Hour 1
  0,                                      !- Minute 1
  0;                                      !- Value Until Time 1

OS:Schedule:Day,
  {3f88bc58-e0a1-43dd-b628-b8c13f63cb67}, !- Handle
  0600|2000|GasStation|default|hoo Winter Design Day, !- Name
  {8f65197d-8887-44f4-8240-68d88d2546ae}, !- Schedule Type Limits Name
  ,                                       !- Interpolate to Timestep
  24,                                     !- Hour 1
  0,                                      !- Minute 1
  0;                                      !- Value Until Time 1

OS:Schedule:Day,
  {868ea644-ce70-499a-998d-6fb9904bf12f}, !- Handle
  Schedule Day 3,                         !- Name
  ,                                       !- Schedule Type Limits Name
  ,                                       !- Interpolate to Timestep
  24,                                     !- Hour 1
  0,                                      !- Minute 1
  0;                                      !- Value Until Time 1

OS:Schedule:Day,
  {7276aab1-1dbb-402a-a0cd-8fd71ac547ca}, !- Handle
  0600|2000|GasStation|default|hoo Summer Design Day, !- Name
  {8f65197d-8887-44f4-8240-68d88d2546ae}, !- Schedule Type Limits Name
  ,                                       !- Interpolate to Timestep
  24,                                     !- Hour 1
  0,                                      !- Minute 1
  1;                                      !- Value Until Time 1

OS:DefaultScheduleSet,
  {3c00e27e-6f12-4d1d-ac0b-cbbf11ed4a9c}, !- Handle
  Building Hours of Operation,            !- Name
  {762ce497-e2eb-4e6f-b45e-b8dd1e14776a}, !- Hours of Operation Schedule Name
  ,                                       !- Number of People Schedule Name
  ,                                       !- People Activity Level Schedule Name
  ,                                       !- Lighting Schedule Name
  ,                                       !- Electric Equipment Schedule Name
  ,                                       !- Gas Equipment Schedule Name
  ,                                       !- Hot Water Equipment Schedule Name
  ,                                       !- Infiltration Schedule Name
  ,                                       !- Steam Equipment Schedule Name
  ;                                       !- Other Equipment Schedule Name

OS:ScheduleTypeLimits,
  {8f65197d-8887-44f4-8240-68d88d2546ae}, !- Handle
  OnOff,                                  !- Name
  0,                                      !- Lower Limit Value {BasedOnField A4}
  1,                                      !- Upper Limit Value {BasedOnField A4}
  Discrete,                               !- Numeric Type
  Availability;                           !- Unit Type

OS:Schedule:Ruleset,
  {9820f79a-bef5-428f-ba0f-446e73bb6fc5}, !- Handle
  0600|2000|GasStation|Retail|occ,        !- Name
  {51e1813c-80c1-4796-bda7-d959df58fe55}, !- Schedule Type Limits Name
  {c8d5035f-2660-43de-91e5-895dd5474745}, !- Default Day Schedule Name
  {c09bc82b-d63c-4b66-9898-648ec398a134}, !- Summer Design Day Schedule Name
  {c0f57941-c278-41bd-aa85-d1833c470517}; !- Winter Design Day Schedule Name

OS:ScheduleTypeLimits,
  {51e1813c-80c1-4796-bda7-d959df58fe55}, !- Handle
  Occupancy Schedule Type Limits,         !- Name
  0,                                      !- Lower Limit Value {BasedOnField A4}
  1,                                      !- Upper Limit Value {BasedOnField A4}
  Continuous,                             !- Numeric Type
  Dimensionless;                          !- Unit Type

OS:Schedule:Day,
  {c8d5035f-2660-43de-91e5-895dd5474745}, !- Handle
  0600|2000|GasStation|Retail|occ |default, !- Name
  {51e1813c-80c1-4796-bda7-d959df58fe55}, !- Schedule Type Limits Name
  ,                                       !- Interpolate to Timestep
  6,                                      !- Hour 1
  0,                                      !- Minute 1
  0,                                      !- Value Until Time 1
  7,                                      !- Hour 2
  0,                                      !- Minute 2
  0.1,                                    !- Value Until Time 2
  8,                                      !- Hour 3
  0,                                      !- Minute 3
  0.2,                                    !- Value Until Time 3
  10,                                     !- Hour 4
  0,                                      !- Minute 4
  0.5,                                    !- Value Until Time 4
  14,                                     !- Hour 5
  0,                                      !- Minute 5
  0.7,                                    !- Value Until Time 5
  15,                                     !- Hour 6
  0,                                      !- Minute 6
  0.8,                                    !- Value Until Time 6
  16,                                     !- Hour 7
  0,                                      !- Minute 7
  0.7,                                    !- Value Until Time 7
  18,                                     !- Hour 8
  0,                                      !- Minute 8
  0.5,                                    !- Value Until Time 8
  20,                                     !- Hour 9
  0,                                      !- Minute 9
  0.3,                                    !- Value Until Time 9
  24,                                     !- Hour 10
  0,                                      !- Minute 10
  0;                                      !- Value Until Time 10

OS:Schedule:Day,
  {c09bc82b-d63c-4b66-9898-648ec398a134}, !- Handle
  0600|2000|GasStation|Retail|occ Summer Design Day, !- Name
  {51e1813c-80c1-4796-bda7-d959df58fe55}, !- Schedule Type Limits Name
  ,                                       !- Interpolate to Timestep
  6,                                      !- Hour 1
  0,                                      !- Minute 1
  0,                                      !- Value Until Time 1
  7,                                      !- Hour 2
  0,                                      !- Minute 2
  0.1,                                    !- Value Until Time 2
  8,                                      !- Hour 3
  0,                                      !- Minute 3
  0.2,                                    !- Value Until Time 3
  20,                                     !- Hour 4
  0,                                      !- Minute 4
  1,                                      !- Value Until Time 4
  24,                                     !- Hour 5
  0,                                      !- Minute 5
  0;                                      !- Value Until Time 5

OS:Schedule:Day,
  {c0f57941-c278-41bd-aa85-d1833c470517}, !- Handle
  0600|2000|GasStation|Retail|occ Winter Design Day, !- Name
  {51e1813c-80c1-4796-bda7-d959df58fe55}, !- Schedule Type Limits Name
  ,                                       !- Interpolate to Timestep
  24,                                     !- Hour 1
  0,                                      !- Minute 1
  0;                                      !- Value Until Time 1

OS:Schedule:Rule,
  {57063fcf-31a5-4c9b-bcb1-2e36b9e56874}, !- Handle
  0600|2000|GasStation|Retail|occ |1/1-12/31|Sat Rule, !- Name
  {9820f79a-bef5-428f-ba0f-446e73bb6fc5}, !- Schedule Ruleset Name
  0,                                      !- Rule Order
  {a52aa85f-7a7d-4fd5-a754-8d16c8e6699b}, !- Day Schedule Name
  ,                                       !- Apply Sunday
  ,                                       !- Apply Monday
  ,                                       !- Apply Tuesday
  ,                                       !- Apply Wednesday
  ,                                       !- Apply Thursday
  ,                                       !- Apply Friday
  Yes,                                    !- Apply Saturday
  ,                                       !- Apply Holiday
  DateRange,                              !- Date Specification Type
  1,                                      !- Start Month
  1,                                      !- Start Day
  12,                                     !- End Month
  31;                                     !- End Day

OS:Schedule:Day,
  {a52aa85f-7a7d-4fd5-a754-8d16c8e6699b}, !- Handle
  0600|2000|GasStation|Retail|occ |1/1-12/31|Sat, !- Name
  {51e1813c-80c1-4796-bda7-d959df58fe55}, !- Schedule Type Limits Name
  ,                                       !- Interpolate to Timestep
  6,                                      !- Hour 1
  0,                                      !- Minute 1
  0,                                      !- Value Until Time 1
  7,                                      !- Hour 2
  0,                                      !- Minute 2
  0.1,                                    !- Value Until Time 2
  8,                                      !- Hour 3
  0,                                      !- Minute 3
  0.2,                                    !- Value Until Time 3
  9,                                      !- Hour 4
  0,                                      !- Minute 4
  0.5,                                    !- Value Until Time 4
  10,                                     !- Hour 5
  0,                                      !- Minute 5
  0.6,                                    !- Value Until Time 5
  16,                                     !- Hour 6
  0,                                      !- Minute 6
  0.8,                                    !- Value Until Time 6
  17,                                     !- Hour 7
  0,                                      !- Minute 7
  0.6,                                    !- Value Until Time 7
  20,                                     !- Hour 8
  0,                                      !- Minute 8
  0.2,                                    !- Value Until Time 8
  21,                                     !- Hour 9
  0,                                      !- Minute 9
  0.1,                                    !- Value Until Time 9
  24,                                     !- Hour 10
  0,                                      !- Minute 10
  0;                                      !- Value Until Time 10

OS:Schedule:Rule,
  {d4fd7fc6-1722-4624-b39a-8aaa0c7515f1}, !- Handle
  0600|2000|GasStation|Retail|occ |1/1-12/31|Sun Rule, !- Name
  {9820f79a-bef5-428f-ba0f-446e73bb6fc5}, !- Schedule Ruleset Name
  1,                                      !- Rule Order
  {99221195-1139-45ba-9d53-d89a2dbd0906}, !- Day Schedule Name
  Yes,                                    !- Apply Sunday
  ,                                       !- Apply Monday
  ,                                       !- Apply Tuesday
  ,                                       !- Apply Wednesday
  ,                                       !- Apply Thursday
  ,                                       !- Apply Friday
  ,                                       !- Apply Saturday
  ,                                       !- Apply Holiday
  DateRange,                              !- Date Specification Type
  1,                                      !- Start Month
  1,                                      !- Start Day
  12,                                     !- End Month
  31;                                     !- End Day

OS:Schedule:Day,
  {99221195-1139-45ba-9d53-d89a2dbd0906}, !- Handle
  0600|2000|GasStation|Retail|occ |1/1-12/31|Sun, !- Name
  {51e1813c-80c1-4796-bda7-d959df58fe55}, !- Schedule Type Limits Name
  ,                                       !- Interpolate to Timestep
  8,                                      !- Hour 1
  0,                                      !- Minute 1
  0,                                      !- Value Until Time 1
  9,                                      !- Hour 2
  0,                                      !- Minute 2
  0.1,                                    !- Value Until Time 2
  11,                                     !- Hour 3
  0,                                      !- Minute 3
  0.2,                                    !- Value Until Time 3
  16,                                     !- Hour 4
  0,                                      !- Minute 4
  0.4,                                    !- Value Until Time 4
  17,                                     !- Hour 5
  0,                                      !- Minute 5
  0.2,                                    !- Value Until Time 5
  18,                                     !- Hour 6
  0,                                      !- Minute 6
  0.1,                                    !- Value Until Time 6
  24,                                     !- Hour 7
  0,                                      !- Minute 7
  0;                                      !- Value Until Time 7

OS:Schedule:Ruleset,
  {bfe994a7-2cab-4c0a-95fc-bc5bb13e4b69}, !- Handle
  0600|2000|GasStation|default|swh_target_temp, !- Name
  {a99a3e0c-9514-4d49-a589-7eb188b05532}, !- Schedule Type Limits Name
  {746b617c-105a-4069-ba7b-2b87341373ad}, !- Default Day Schedule Name
  {e3dbc8f5-1a94-42a9-b1a8-7ca34e2bf627}, !- Summer Design Day Schedule Name
  {8652112f-6e96-4c0a-8a10-842cf8a3f48a}; !- Winter Design Day Schedule Name

OS:ScheduleTypeLimits,
  {a99a3e0c-9514-4d49-a589-7eb188b05532}, !- Handle
  Temperature Schedule Type Limits,       !- Name
  ,                                       !- Lower Limit Value {BasedOnField A4}
  ,                                       !- Upper Limit Value {BasedOnField A4}
  Continuous,                             !- Numeric Type
  Temperature;                            !- Unit Type

OS:Schedule:Day,
  {746b617c-105a-4069-ba7b-2b87341373ad}, !- Handle
  0600|2000|GasStation|default|swh_target_temp |default, !- Name
  {a99a3e0c-9514-4d49-a589-7eb188b05532}, !- Schedule Type Limits Name
  ,                                       !- Interpolate to Timestep
  24,                                     !- Hour 1
  0,                                      !- Minute 1
  71.1111111111111;                       !- Value Until Time 1

OS:Schedule:Day,
  {e3dbc8f5-1a94-42a9-b1a8-7ca34e2bf627}, !- Handle
  0600|2000|GasStation|default|swh_target_temp Summer Design Day, !- Name
  {a99a3e0c-9514-4d49-a589-7eb188b05532}, !- Schedule Type Limits Name
  ,                                       !- Interpolate to Timestep
  24,                                     !- Hour 1
  0,                                      !- Minute 1
  71.1111111111111;                       !- Value Until Time 1

OS:Schedule:Day,
  {8652112f-6e96-4c0a-8a10-842cf8a3f48a}, !- Handle
  0600|2000|GasStation|default|swh_target_temp Winter Design Day, !- Name
  {a99a3e0c-9514-4d49-a589-7eb188b05532}, !- Schedule Type Limits Name
  ,                                       !- Interpolate to Timestep
  24,                                     !- Hour 1
  0,                                      !- Minute 1
  71.1111111111111;                       !- Value Until Time 1

OS:Schedule:Ruleset,
  {220905c6-d577-4c5b-997e-530ee494a744}, !- Handle
  0600|2000|GasStation|default|elec_equip, !- Name
  {4c6faf1f-405c-4f10-994e-3ea182d059a7}, !- Schedule Type Limits Name
  {463837e0-58de-4148-8a6d-675994857f12}, !- Default Day Schedule Name
  {62b41e15-dbbb-4ccb-a32f-273e8559a344}, !- Summer Design Day Schedule Name
  {85c6fc50-5059-4efc-997e-2b6ac7e2768b}; !- Winter Design Day Schedule Name

OS:ScheduleTypeLimits,
  {4c6faf1f-405c-4f10-994e-3ea182d059a7}, !- Handle
  Equipment Schedule Type Limits,         !- Name
  0,                                      !- Lower Limit Value {BasedOnField A4}
  1,                                      !- Upper Limit Value {BasedOnField A4}
  Continuous,                             !- Numeric Type
  Dimensionless;                          !- Unit Type

OS:Schedule:Day,
  {463837e0-58de-4148-8a6d-675994857f12}, !- Handle
  0600|2000|GasStation|default|elec_equip |default, !- Name
  {4c6faf1f-405c-4f10-994e-3ea182d059a7}, !- Schedule Type Limits Name
  ,                                       !- Interpolate to Timestep
  6,                                      !- Hour 1
  0,                                      !- Minute 1
  0.4,                                    !- Value Until Time 1
  10,                                     !- Hour 2
  0,                                      !- Minute 2
  0.9,                                    !- Value Until Time 2
  11,                                     !- Hour 3
  0,                                      !- Minute 3
  0.8,                                    !- Value Until Time 3
  19,                                     !- Hour 4
  0,                                      !- Minute 4
  0.9,                                    !- Value Until Time 4
  19,                                     !- Hour 5
  30,                                     !- Minute 5
  0.78,                                   !- Value Until Time 5
  20,                                     !- Hour 6
  0,                                      !- Minute 6
  0.65,                                   !- Value Until Time 6
  20,                                     !- Hour 7
  30,                                     !- Minute 7
  0.53,                                   !- Value Until Time 7
  24,                                     !- Hour 8
  0,                                      !- Minute 8
  0.4;                                    !- Value Until Time 8

OS:Schedule:Day,
  {62b41e15-dbbb-4ccb-a32f-273e8559a344}, !- Handle
  0600|2000|GasStation|default|elec_equip Summer Design Day, !- Name
  {4c6faf1f-405c-4f10-994e-3ea182d059a7}, !- Schedule Type Limits Name
  ,                                       !- Interpolate to Timestep
  24,                                     !- Hour 1
  0,                                      !- Minute 1
  1;                                      !- Value Until Time 1

OS:Schedule:Day,
  {85c6fc50-5059-4efc-997e-2b6ac7e2768b}, !- Handle
  0600|2000|GasStation|default|elec_equip Winter Design Day, !- Name
  {4c6faf1f-405c-4f10-994e-3ea182d059a7}, !- Schedule Type Limits Name
  ,                                       !- Interpolate to Timestep
  24,                                     !- Hour 1
  0,                                      !- Minute 1
  0.4;                                    !- Value Until Time 1

OS:Schedule:Rule,
  {afd1ed2a-b512-42dc-aba7-01459897ad97}, !- Handle
  0600|2000|GasStation|default|elec_equip |1/1-12/31|Sun Rule, !- Name
  {220905c6-d577-4c5b-997e-530ee494a744}, !- Schedule Ruleset Name
  0,                                      !- Rule Order