
OS:Version,
  {0e4520c3-8702-4acf-b4c9-7cd7993c9cc0}, !- Handle
  1.5.5;                                  !- Version Identifier

OS:ClimateZones,
  {135edfab-17e7-40db-a436-27d385a8cd6d}, !- Handle
  ,                                       !- Active Institution
  ,                                       !- Active Year
  ASHRAE,                                 !- Climate Zone Institution Name 1
  ANSI/ASHRAE Standard 169,               !- Climate Zone Document Name 1
  2006,                                   !- Climate Zone Document Year 1
  ,                                       !- Climate Zone Value 1
  CEC,                                    !- Climate Zone Institution Name 2
  California Climate Zone Descriptions,   !- Climate Zone Document Name 2
  1995,                                   !- Climate Zone Document Year 2
  ;                                       !- Climate Zone Value 2

OS:YearDescription,
  {513d8dda-86cb-442a-b01c-1f7f0e0ac70e}; !- Handle

OS:RadianceParameters,
  {270a96f1-3c86-4b75-a667-cdf22790e2c8}, !- Handle
  1,                                      !- Accumulated Rays per Record
  0,                                      !- Direct Threshold
  1,                                      !- Direct Certainty
  1,                                      !- Direct Jitter
  1,                                      !- Direct Pretest
  6,                                      !- Ambient Bounces VMX
  2,                                      !- Ambient Bounces DMX
  4050,                                   !- Ambient Divisions VMX
  512,                                    !- Ambient Divisions DMX
  256,                                    !- Ambient Supersamples
  0.001,                                  !- Limit Weight VMX
  0.001,                                  !- Limit Weight DMX
  500,                                    !- Klems Sampling Density
  146;                                    !- Sky Discretization Resolution

OS:SimulationControl,
  {2c487a4c-bac9-4ac5-b669-1e49d9da7c2b}, !- Handle
  ,                                       !- Do Zone Sizing Calculation
  ,                                       !- Do System Sizing Calculation
  ,                                       !- Do Plant Sizing Calculation
  No,                                     !- Run Simulation for Sizing Periods
  ,                                       !- Run Simulation for Weather File Run Periods
  0.04,                                   !- Loads Convergence Tolerance Value
  ,                                       !- Temperature Convergence Tolerance Value {deltaC}
  ,                                       !- Solar Distribution
  ,                                       !- Maximum Number of Warmup Days
  2;                                      !- Minimum Number of Warmup Days

OS:Sizing:Parameters,
  {dde5af6f-7923-4600-a28a-7556673a0266}, !- Handle
  1.25,                                   !- Heating Sizing Factor
  1.15;                                   !- Cooling Sizing Factor

OS:ProgramControl,
  {05027a99-f2b3-4aeb-afc6-1425fbb4371d}; !- Handle

OS:Timestep,
  {4ebc9f1e-4707-402e-9844-67eb1ffbd522}, !- Handle
  2;                                      !- Number of Timesteps per Hour

OS:OutputControl:ReportingTolerances,
  {65797aa2-06a9-45fe-b69d-bc6e060399d3}; !- Handle

OS:ConvergenceLimits,
  {9fc11aba-8822-4f3d-970c-46391ba4040d}; !- Handle

OS:ShadowCalculation,
  {ca758bea-4416-4626-9bba-3d8795c79bd6}, !- Handle
  7,                                      !- Calculation Frequency
  15000;                                  !- Maximum Figures in Shadow Overlap Calculations

OS:SurfaceConvectionAlgorithm:Inside,
  {aaabfc36-718a-4ab0-b622-f186ebb45230}, !- Handle
  TARP;                                   !- Algorithm

OS:SurfaceConvectionAlgorithm:Outside,
  {9a0a9f6f-4bbd-4b12-a121-9492a1fcd7d6}, !- Handle
  DOE-2;                                  !- Algorithm

OS:HeatBalanceAlgorithm,
  {9d93e563-e1e0-46d7-9e39-d1c8aceb7212}, !- Handle
  ConductionTransferFunction,             !- Algorithm
  200;                                    !- Surface Temperature Upper Limit {F}

OS:ZoneAirHeatBalanceAlgorithm,
  {8520d93e-310f-4696-9bcd-36228bfdd743}, !- Handle
  AnalyticalSolution;                     !- Algorithm

OS:ZoneAirContaminantBalance,
  {eb5fc3ae-fb22-4160-8fcb-3e3b22b000d3}; !- Handle

OS:ZoneCapacitanceMultiplier:ResearchSpecial,
  {4020ce4f-5a7a-4849-8028-8305d7b751b1}, !- Handle
  ,                                       !- Temperature Capacity Multiplier
  ,                                       !- Humidity Capacity Multiplier
  ;                                       !- Carbon Dioxide Capacity Multiplier

OS:RunPeriod,
  {28df894d-6af9-4fb8-8f56-df1753344aa3}, !- Handle
  Run Period 1,                           !- Name
  1,                                      !- Begin Month
  1,                                      !- Begin Day of Month
  12,                                     !- End Month
  31,                                     !- End Day of Month
  ,                                       !- Use Weather File Holidays and Special Days
  ,                                       !- Use Weather File Daylight Saving Period
  ,                                       !- Apply Weekend Holiday Rule
  ,                                       !- Use Weather File Rain Indicators
  ,                                       !- Use Weather File Snow Indicators
  ;                                       !- Number of Times Runperiod to be Repeated

OS:Building,
  {bf305633-c5a1-4881-9edf-ca5e1a8e1274}, !- Handle
  Building 1,                             !- Name
  ,                                       !- Building Sector Type
  ,                                       !- North Axis {deg}
  ,                                       !- Nominal Floor to Floor Height {m}
  ,                                       !- Space Type Name
  ,                                       !- Default Construction Set Name
  {b149bce4-3f50-4bb8-bd7f-b9f7c901da69}, !- Default Schedule Set Name
  ,                                       !- Standards Number of Stories
  ,                                       !- Standards Number of Above Ground Stories
  Hospital;                               !- Standards Building Type

OS:LifeCycleCost:Parameters,
  {231cf8a0-f0e7-4251-a99f-11f0d464e661}, !- Handle
  FEMP,                                   !- Analysis Type
  ,                                       !- Discounting Convention
  ,                                       !- Inflation Approach
  ,                                       !- Real Discount Rate
  ,                                       !- Nominal Discount Rate
  ,                                       !- Inflation
  ,                                       !- Base Date Month
  ,                                       !- Base Date Year
  ,                                       !- Service Date Month
  ,                                       !- Service Date Year
  ,                                       !- Length of Study Period in Years
  ,                                       !- Tax Rate
  ,                                       !- Depreciation Method
  Yes;                                    !- Use NIST Fuel Escalation Rates

OS:Facility,
  {3ba8e45b-b833-44eb-a723-ea6c3946dc96}; !- Handle

OS:SpaceType,
  {d5960b49-e96c-4ab9-90d8-b8217bcf8eb5}, !- Handle
  Hospital|BlendPat|DOE Ref Pre-1980|ASHRAE 169-2006-5A, !- Name
  {aaf46cdc-2640-4dbf-ac42-f18666feb21b}, !- Default Construction Set Name
  ,                                       !- Default Schedule Set Name
  {e05fa351-115e-420a-8cc6-831654f8a97b}, !- Group Rendering Name
  {63574a66-f332-413a-a033-65750d287479}, !- Design Specification Outdoor Air Object Name
  Hospital,                               !- Standards Building Type
  BlendPat;                               !- Standards Space Type

OS:Rendering:Color,
  {e05fa351-115e-420a-8cc6-831654f8a97b}, !- Handle
  Rendering Color 1,                      !- Name
  31,                                     !- Rendering Red Value
  162,                                    !- Rendering Green Value
  169;                                    !- Rendering Blue Value

OS:SpaceType,
  {9a458601-7f70-4713-8f41-afe754f63fee}, !- Handle
  Hospital|BlendCirc|DOE Ref Pre-1980|ASHRAE 169-2006-5A, !- Name
  {aaf46cdc-2640-4dbf-ac42-f18666feb21b}, !- Default Construction Set Name
  ,                                       !- Default Schedule Set Name
  {025a940d-d05e-493f-b556-93d657d3ea4e}, !- Group Rendering Name
  {dca4c558-f814-4cea-9bf1-77e3ab6e676b}, !- Design Specification Outdoor Air Object Name
  Hospital,                               !- Standards Building Type
  BlendCirc;                              !- Standards Space Type

OS:Rendering:Color,
  {025a940d-d05e-493f-b556-93d657d3ea4e}, !- Handle
  Rendering Color 2,                      !- Name
  169,                                    !- Rendering Red Value
  31,                                     !- Rendering Green Value
  31;                                     !- Rendering Blue Value

OS:SpaceType,
  {0613b8b3-fa33-4b96-9ef0-93798d482208}, !- Handle
  Hospital|Kitchen|DOE Ref Pre-1980|ASHRAE 169-2006-5A, !- Name
  {aaf46cdc-2640-4dbf-ac42-f18666feb21b}, !- Default Construction Set Name
  {d903b55e-00e8-41eb-ba0b-bb45a3b0399f}, !- Default Schedule Set Name
  {df485b46-08ae-49eb-905c-6822b1ff6705}, !- Group Rendering Name
  {7053fa3c-18a7-4131-a061-660597574b39}, !- Design Specification Outdoor Air Object Name
  Hospital,                               !- Standards Building Type
  Kitchen;                                !- Standards Space Type

OS:Rendering:Color,
  {df485b46-08ae-49eb-905c-6822b1ff6705}, !- Handle
  Rendering Color 3,                      !- Name
  78,                                     !- Rendering Red Value
  222,                                    !- Rendering Green Value
  133;                                    !- Rendering Blue Value

OS:SpaceType,
  {c48eeaef-6653-4e3a-bc69-47948823cfc0}, !- Handle
  Hospital|Dining|DOE Ref Pre-1980|ASHRAE 169-2006-5A, !- Name
  {aaf46cdc-2640-4dbf-ac42-f18666feb21b}, !- Default Construction Set Name
  {a2e94422-4aba-4e7a-9e0e-fcd5ce39c470}, !- Default Schedule Set Name
  {31505f5f-bf87-4ff2-bd90-00bb1acf543b}, !- Group Rendering Name
  {a964011b-28df-463d-8e1a-fcfcbd63ac22}, !- Design Specification Outdoor Air Object Name
  Hospital,                               !- Standards Building Type
  Dining;                                 !- Standards Space Type

OS:Rendering:Color,
  {31505f5f-bf87-4ff2-bd90-00bb1acf543b}, !- Handle
  Rendering Color 4,                      !- Name
  31,                                     !- Rendering Red Value
  169,                                    !- Rendering Green Value
  34;                                     !- Rendering Blue Value

OS:SpaceType,
  {5f231753-8f40-4899-82c7-5eab50f9c9c0}, !- Handle
  Hospital|Lab|DOE Ref Pre-1980|ASHRAE 169-2006-5A, !- Name
  {aaf46cdc-2640-4dbf-ac42-f18666feb21b}, !- Default Construction Set Name
  {99e9ef92-ec8e-47c8-b697-ee802c2e5479}, !- Default Schedule Set Name
  {1a4f28a3-2faa-41cf-a8aa-d5c715017cb6}, !- Group Rendering Name
  {1c3f6260-e285-4e23-b765-2c74e8b8f642}, !- Design Specification Outdoor Air Object Name
  Hospital,                               !- Standards Building Type
  Lab;                                    !- Standards Space Type

OS:Rendering:Color,
  {1a4f28a3-2faa-41cf-a8aa-d5c715017cb6}, !- Handle
  Rendering Color 5,                      !- Name
  204,                                    !- Rendering Red Value
  120,                                    !- Rendering Green Value
  230;                                    !- Rendering Blue Value

OS:SpaceType,
  {58467a1a-a9e2-44e2-a9ef-21ed3cc50eb3}, !- Handle
  Hospital|Radiology|DOE Ref Pre-1980|ASHRAE 169-2006-5A, !- Name
  {aaf46cdc-2640-4dbf-ac42-f18666feb21b}, !- Default Construction Set Name
  {a18263ad-b02e-49c0-a3ed-2e9d41298100}, !- Default Schedule Set Name
  {4787f4ec-cad0-4563-8c57-87a10feb5771}, !- Group Rendering Name
  {d6fe89fa-73fc-4d64-83a1-645d5268d386}, !- Design Specification Outdoor Air Object Name
  Hospital,                               !- Standards Building Type
  Radiology;                              !- Standards Space Type

OS:Rendering:Color,
  {4787f4ec-cad0-4563-8c57-87a10feb5771}, !- Handle
  Rendering Color 6,                      !- Name
  136,                                    !- Rendering Red Value
  78,                                     !- Rendering Green Value
  222;                                    !- Rendering Blue Value

OS:Schedule:Ruleset,
  {429b127e-c1ed-49e2-8fd2-253909d685c5}, !- Handle
  0400|2200|Hospital|default|hoo,         !- Name
  {f33e5ac8-f50d-4a05-8539-a1fe222e953e}, !- Schedule Type Limits Name
  {1b2079ca-3c14-46de-9b0f-4fa410018505}, !- Default Day Schedule Name
  {8dccb730-3bf1-4057-95cf-e4ccad406d14}, !- Summer Design Day Schedule Name
  {f11dfab0-c8cb-41aa-ae1b-1836c9acfc78}; !- Winter Design Day Schedule Name

OS:Schedule:Day,
  {1b2079ca-3c14-46de-9b0f-4fa410018505}, !- Handle
  0400|2200|Hospital|default|hoo Schedule Week Day, !- Name
  {f33e5ac8-f50d-4a05-8539-a1fe222e953e}, !- Schedule Type Limits Name
  ,                                       !- Interpolate to Timestep
  4,                                      !- Hour 1
  0,                                      !- Minute 1
  0,                                      !- Value Until Time 1
  22,                                     !- Hour 2
  0,                                      !- Minute 2
  1,                                      !- Value Until Time 2
  24,                                     !- Hour 3
  0,                                      !- Minute 3
  0;                                      !- Value Until Time 3

OS:Schedule:Day,
  {f4bb51d9-a85d-42b1-a4e8-8868fbb84e3a}, !- Handle
  Schedule Day 2,                         !- Name
  ,                                       !- Schedule Type Limits Name
  ,                                       !- Interpolate to Timestep
  24,                                     !- Hour 1
  0,                                      !- Minute 1
  0;                                      !- Value Until Time 1

OS:Schedule:Day,
  {f11dfab0-c8cb-41aa-ae1b-1836c9acfc78}, !- Handle
  0400|2200|Hospital|default|hoo Winter Design Day, !- Name
  {f33e5ac8-f50d-4a05-8539-a1fe222e953e}, !- Schedule Type Limits Name
  ,                                       !- Interpolate to Timestep
  24,                                     !- Hour 1
  0,                                      !- Minute 1
  0;                                      !- Value Until Time 1

OS:Schedule:Day,
  {aef1f5ca-e286-40dc-8362-85a2de7ba52c}, !- Handle
  Schedule Day 3,                         !- Name
  ,                                       !- Schedule Type Limits Name
  ,                                       !- Interpolate to Timestep
  24,                                     !- Hour 1
  0,                                      !- Minute 1
  0;                                      !- Value Until Time 1

OS:Schedule:Day,
  {8dccb730-3bf1-4057-95cf-e4ccad406d14}, !- Handle
  0400|2200|Hospital|default|hoo Summer Design Day, !- Name
  {f33e5ac8-f50d-4a05-8539-a1fe222e953e}, !- Schedule Type Limits Name
  ,                                       !- Interpolate to Timestep
  24,                                     !- Hour 1
  0,                                      !- Minute 1
  1;                                      !- Value Until Time 1

OS:DefaultScheduleSet,
  {b149bce4-3f50-4bb8-bd7f-b9f7c901da69}, !- Handle
  Building Hours of Operation,            !- Name
  {429b127e-c1ed-49e2-8fd2-253909d685c5}, !- Hours of Operation Schedule Name
  ,                                       !- Number of People Schedule Name
  ,                                       !- People Activity Level Schedule Name
  ,                                       !- Lighting Schedule Name
  ,                                       !- Electric Equipment Schedule Name
  ,                                       !- Gas Equipment Schedule Name
  ,                                       !- Hot Water Equipment Schedule Name
  ,                                       !- Infiltration Schedule Name
  ,                                       !- Steam Equipment Schedule Name
  ;                                       !- Other Equipment Schedule Name

OS:ScheduleTypeLimits,
  {f33e5ac8-f50d-4a05-8539-a1fe222e953e}, !- Handle
  OnOff,                                  !- Name
  0,                                      !- Lower Limit Value {BasedOnField A4}
  1,                                      !- Upper Limit Value {BasedOnField A4}
  Discrete,                               !- Numeric Type
  Availability;                           !- Unit Type

OS:Schedule:Ruleset,
  {46125705-382b-48a5-a7ce-f9c9aba9aff6}, !- Handle
  0400|2200|Hospital|ER_NurseStn|htg_setpoint, !- Name
  {1317e49f-551d-4e36-a7f2-17fda9148322}, !- Schedule Type Limits Name
  {95c3e07c-c1f0-4205-ad70-1565e2e995a2}, !- Default Day Schedule Name
  {32298d6c-429c-433e-aa7f-824ab41d6756}, !- Summer Design Day Schedule Name
  {f3cfb7ff-fdaf-484b-9d2a-2d0a12ae3e2b}; !- Winter Design Day Schedule Name

OS:ScheduleTypeLimits,
  {1317e49f-551d-4e36-a7f2-17fda9148322}, !- Handle
  Thermostat Heating Setpoint Schedule Type Limits, !- Name
  0,                                      !- Lower Limit Value {BasedOnField A4}
  100,                                    !- Upper Limit Value {BasedOnField A4}
  Continuous,                             !- Numeric Type
  Temperature;                            !- Unit Type

OS:Schedule:Day,
  {95c3e07c-c1f0-4205-ad70-1565e2e995a2}, !- Handle
  0400|2200|Hospital|ER_NurseStn|htg_setpoint |default, !- Name
  {1317e49f-551d-4e36-a7f2-17fda9148322}, !- Schedule Type Limits Name
  ,                                       !- Interpolate to Timestep
  24,                                     !- Hour 1
  0,                                      !- Minute 1
  21.1;                                   !- Value Until Time 1

OS:Schedule:Day,
  {32298d6c-429c-433e-aa7f-824ab41d6756}, !- Handle
  0400|2200|Hospital|ER_NurseStn|htg_setpoint Summer Design Day, !- Name
  {1317e49f-551d-4e36-a7f2-17fda9148322}, !- Schedule Type Limits Name
  ,                                       !- Interpolate to Timestep
  24,                                     !- Hour 1
  0,                                      !- Minute 1
  21.1;                                   !- Value Until Time 1

OS:Schedule:Day,
  {f3cfb7ff-fdaf-484b-9d2a-2d0a12ae3e2b}, !- Handle
  0400|2200|Hospital|ER_NurseStn|htg_setpoint Winter Design Day, !- Name
  {1317e49f-551d-4e36-a7f2-17fda9148322}, !- Schedule Type Limits Name
  ,                                       !- Interpolate to Timestep
  24,                                     !- Hour 1
  0,                                      !- Minute 1
  21.1;                                   !- Value Until Time 1

OS:Schedule:Ruleset,
  {261447db-b782-4731-8dca-d800b2f1b05c}, !- Handle
  0400|2200|Hospital|ER_Triage|lighting,  !- Name
  {0de9c5d2-3982-49d8-9c29-cfa67511562c}, !- Schedule Type Limits Name
  {70d35e4c-cd91-41bc-8b56-d6192abdb245}, !- Default Day Schedule Name
  {26bb1046-d918-44d4-95af-169dc55cced4}, !- Summer Design Day Schedule Name
  {d2048dfb-c69d-4780-8288-11bd8bec28e9}; !- Winter Design Day Schedule Name

OS:ScheduleTypeLimits,
  {0de9c5d2-3982-49d8-9c29-cfa67511562c}, !- Handle
  Lights Schedule Type Limits,            !- Name
  0,                                      !- Lower Limit Value {BasedOnField A4}
  1,                                      !- Upper Limit Value {BasedOnField A4}
  Continuous,                             !- Numeric Type
  Dimensionless;                          !- Unit Type

OS:Schedule:Day,
  {70d35e4c-cd91-41bc-8b56-d6192abdb245}, !- Handle
  0400|2200|Hospital|ER_Triage|lighting |default, !- Name
  {0de9c5d2-3982-49d8-9c29-cfa67511562c}, !- Schedule Type Limits Name
  ,                                       !- Interpolate to Timestep
  4,                                      !- Hour 1
  0,                                      !- Minute 1
  0.5,                                    !- Value Until Time 1
  6,                                      !- Hour 2
  0,                                      !- Minute 2
  0.7,                                    !- Value Until Time 2
  18,                                     !- Hour 3
  0,                                      !- Minute 3
  0.9,                                    !- Value Until Time 3
  22,                                     !- Hour 4
  0,                                      !- Minute 4
  0.7,                                    !- Value Until Time 4
  24,                                     !- Hour 5
  0,                                      !- Minute 5
  0.5;                                    !- Value Until Time 5

OS:Schedule:Day,
  {26bb1046-d918-44d4-95af-169dc55cced4}, !- Handle
  0400|2200|Hospital|ER_Triage|lighting Summer Design Day, !- Name
  {0de9c5d2-3982-49d8-9c29-cfa67511562c}, !- Schedule Type Limits Name
  ,                                       !- Interpolate to Timestep
  24,                                     !- Hour 1
  0,                                      !- Minute 1
  1;                                      !- Value Until Time 1

OS:Schedule:Day,
  {d2048dfb-c69d-4780-8288-11bd8bec28e9}, !- Handle
  0400|2200|Hospital|ER_Triage|lighting Winter Design Day, !- Name
  {0de9c5d2-3982-49d8-9c29-cfa67511562c}, !- Schedule Type Limits Name
  ,                                       !- Interpolate to Timestep
  24,                                     !- Hour 1
  0,                                      !- Minute 1
  0.5;                                    !- Value Until Time 1

OS:Schedule:Ruleset,
  {6598199b-cf46-4cf9-8e45-63901d410d14}, !- Handle
  0400|2200|Hospital|PatRoom|clg_setpoint, !- Name
  {b71c202f-3acc-421a-823f-fe66df84c7e3}, !- Schedule Type Limits Name
  {2c482de9-9895-4853-b5c2-286157a60383}, !- Default Day Schedule Name
  {0f0ab8fd-86f7-4d09-8b8f-c7dc3a8d2952}, !- Summer Design Day Schedule Name
  {1fdff234-26de-4859-9ff0-9efa664ef26f}; !- Winter Design Day Schedule Name

OS:ScheduleTypeLimits,
  {b71c202f-3acc-421a-823f-fe66df84c7e3}, !- Handle
  Thermostat Cooling Setpoint Schedule Type Limits, !- Name
  0,                                      !- Lower Limit Value {BasedOnField A4}
  100,                                    !- Upper Limit Value {BasedOnField A4}
  Continuous,                             !- Numeric Type
  Temperature;                            !- Unit Type

OS:Schedule:Day,
  {2c482de9-9895-4853-b5c2-286157a60383}, !- Handle
  0400|2200|Hospital|PatRoom|clg_setpoint |default, !- Name
  {b71c202f-3acc-421a-823f-fe66df84c7e3}, !- Schedule Type Limits Name
  ,                                       !- Interpolate to Timestep
  24,                                     !- Hour 1
  0,                                      !- Minute 1
  22.2;                                   !- Value Until Time 1

OS:Schedule:Day,
  {0f0ab8fd-86f7-4d09-8b8f-c7dc3a8d2952}, !- Handle
  0400|2200|Hospital|PatRoom|clg_setpoint Summer Design Day, !- Name
  {b71c202f-3acc-421a-823f-fe66df84c7e3}, !- Schedule Type Limits Name
  ,                                       !- Interpolate to Timestep
  24,                                     !- Hour 1
  0,                                      !- Minute 1
  22.2;                                   !- Value Until Time 1

OS:Schedule:Day,
  {1fdff234-26de-4859-9ff0-9efa664ef26f}, !- Handle
  0400|2200|Hospital|PatRoom|clg_setpoint Winter Design Day, !- Name
  {b71c202f-3acc-421a-823f-fe66df84c7e3}, !- Schedule Type Limits Name
  ,                                       !- Interpolate to Timestep
  24,                                     !- Hour 1
  0,                                      !- Minute 1
  22.2;                                   !- Value Until Time 1

OS:Schedule:Ruleset,
  {67d086d9-b787-4f2b-aecb-6a885e439ee0}, !- Handle
  0400|2200|Hospital|default|htg_setpoint, !- Name
  {1317e49f-551d-4e36-a7f2-17fda9148322}, !- Schedule Type Limits Name
  {f6362155-baa9-4ded-b4ac-c9b25f5c2305}, !- Default Day Schedule Name
  {ee4fed89-bb55-45ae-8d97-bb95fcd52eba}, !- Summer Design Day Schedule Name
  {1040c145-b634-4fc7-a0c5-d7409642ea90}; !- Winter Design Day Schedule Name

OS:Schedule:Day,
  {f6362155-baa9-4ded-b4ac-c9b25f5c2305}, !- Handle
  0400|2200|Hospital|default|htg_setpoint |default, !- Name
  {1317e49f-551d-4e36-a7f2-17fda9148322}, !- Schedule Type Limits Name
  ,                                       !- Interpolate to Timestep
  5,                                      !- Hour 1
  0,                                      !- Minute 1
  18.3,                                   !- Value Until Time 1
  18,                                     !- Hour 2
  0,                                      !- Minute 2
  21.1,                                   !- Value Until Time 2
  24,                                     !- Hour 3
  0,                                      !- Minute 3
  18.3;                                   !- Value Until Time 3

OS:Schedule:Day,
  {ee4fed89-bb55-45ae-8d97-bb95fcd52eba}, !- Handle
  0400|2200|Hospital|default|htg_setpoint Summer Design Day, !- Name
  {1317e49f-551d-4e36-a7f2-17fda9148322}, !- Schedule Type Limits Name
  ,                                       !- Interpolate to Timestep
  5,                                      !- Hour 1
  0,                                      !- Minute 1
  18.3,                                   !- Value Until Time 1
  18,                                     !- Hour 2
  0,                                      !- Minute 2
  21.1,                                   !- Value Until Time 2
  24,                                     !- Hour 3
  0,                                      !- Minute 3
  18.3;                                   !- Value Until Time 3

OS:Schedule:Day,
  {1040c145-b634-4fc7-a0c5-d7409642ea90}, !- Handle
  0400|2200|Hospital|default|htg_setpoint Winter Design Day, !- Name
  {1317e49f-551d-4e36-a7f2-17fda9148322}, !- Schedule Type Limits Name
  ,                                       !- Interpolate to Timestep
  24,                                     !- Hour 1
  0,                                      !- Minute 1
  18.3;                                   !- Value Until Time 1

OS:Schedule:Rule,
  {583c670a-b1d9-4ddc-8c39-14311954b3ab}, !- Handle
  0400|2200|Hospital|default|htg_setpoint |1/1-12/31|Sat/Sun Rule, !- Name
  {67d086d9-b787-4f2b-aecb-6a885e439ee0}, !- Schedule Ruleset Name
  0,                                      !- Rule Order
  {180e3a50-76c5-4405-8dc8-4cbf84693099}, !- Day Schedule Name
  Yes,                                    !- Apply Sunday
  ,                                       !- Apply Monday
  ,                                       !- Apply Tuesday
  ,                                       !- Apply Wednesday
  ,                                       !- Apply Thursday
  ,                                       !- Apply Friday
  Yes,                                    !- Apply Saturday
  ,                                       !- Apply Holiday
  DateRange,                              !- Date Specification Type
  1,                                      !- Start Month
  1,                                      !- Start Day
  12,                                     !- End Month
  31;                                     !- End Day

OS:Schedule:Day,
  {180e3a50-76c5-4405-8dc8-4cbf84693099}, !- Handle
  0400|2200|Hospital|default|htg_setpoint |1/1-12/31|Sat/Sun, !- Name
  {1317e49f-551d-4e36-a7f2-17fda9148322}, !- Schedule Type Limits Name
  ,                                       !- Interpolate to Timestep
  24,                                     !- Hour 1
  0,                                      !- Minute 1
  18.3;                                   !- Value Until Time 1

OS:Schedule:Ruleset,
  {1dc16ea2-89b1-4c14-8755-2f5bab849a46}, !- Handle
  0400|2200|Hospital|default|ext_lighting, !- Name
  {0de9c5d2-3982-49d8-9c29-cfa67511562c}, !- Schedule Type Limits Name
  {6926b807-c809-406d-843a-bca0d39be279}, !- Default Day Schedule Name
  {32fe5f1d-6d7d-4a72-a03c-1928b26e6440}, !- Summer Design Day Schedule Name
  {ca4fa4bf-c2aa-410e-b266-5f71775420bf}; !- Winter Design Day Schedule Name

OS:Schedule:Day,
  {6926b807-c809-406d-843a-bca0d39be279}, !- Handle
  0400|2200|Hospital|default|ext_lighting |default, !- Name
  {0de9c5d2-3982-49d8-9c29-cfa67511562c}, !- Schedule Type Limits Name
  ,                                       !- Interpolate to Timestep
  24,                                     !- Hour 1
  0,                                      !- Minute 1
  1;                                      !- Value Until Time 1

OS:Schedule:Day,
  {32fe5f1d-6d7d-4a72-a03c-1928b26e6440}, !- Handle
  0400|2200|Hospital|default|ext_lighting Summer Design Day, !- Name
  {0de9c5d2-3982-49d8-9c29-cfa67511562c}, !- Schedule Type Limits Name
  ,                                       !- Interpolate to Timestep
  24,                                     !- Hour 1
  0,                                      !- Minute 1
  1;                                      !- Value Until Time 1

OS:Schedule:Day,
  {ca4fa4bf-c2aa-410e-b266-5f71775420bf}, !- Handle
  0400|2200|Hospital|default|ext_lighting Winter Design Day, !- Name
  {0de9c5d2-3982-49d8-9c29-cfa67511562c}, !- Schedule Type Limits Name
  ,                                       !- Interpolate to Timestep
  24,                                     !- Hour 1
  0,                                      !- Minute 1
  1;                                      !- Value Until Time 1

OS:Schedule:Ruleset,
  {8a221c08-f000-4a1c-88ba-1c812eebf6ba}, !- Handle
  0400|2200|Hospital|ER_Trauma|lighting,  !- Name