
OS:Version,
  {360f4d63-f2cd-40cf-89e4-e7d46ec117cd}, !- Handle
  1.5.5;                                  !- Version Identifier

OS:ClimateZones,
  {135edfab-17e7-40db-a436-27d385a8cd6d}, !- Handle
  ,                                       !- Active Institution
  ,                                       !- Active Year
  ASHRAE,                                 !- Climate Zone Institution Name 1
  ANSI/ASHRAE Standard 169,               !- Climate Zone Document Name 1
  2006,                                   !- Climate Zone Document Year 1
  ,                                       !- Climate Zone Value 1
  CEC,                                    !- Climate Zone Institution Name 2
  California Climate Zone Descriptions,   !- Climate Zone Document Name 2
  1995,                                   !- Climate Zone Document Year 2
  ;                                       !- Climate Zone Value 2

OS:YearDescription,
  {513d8dda-86cb-442a-b01c-1f7f0e0ac70e}; !- Handle

OS:RadianceParameters,
  {270a96f1-3c86-4b75-a667-cdf22790e2c8}, !- Handle
  1,                                      !- Accumulated Rays per Record
  0,                                      !- Direct Threshold
  1,                                      !- Direct Certainty
  1,                                      !- Direct Jitter
  1,                                      !- Direct Pretest
  6,                                      !- Ambient Bounces VMX
  2,                                      !- Ambient Bounces DMX
  4050,                                   !- Ambient Divisions VMX
  512,                                    !- Ambient Divisions DMX
  256,                                    !- Ambient Supersamples
  0.001,                                  !- Limit Weight VMX
  0.001,                                  !- Limit Weight DMX
  500,                                    !- Klems Sampling Density
  146;                                    !- Sky Discretization Resolution

OS:SimulationControl,
  {2c487a4c-bac9-4ac5-b669-1e49d9da7c2b}, !- Handle
  ,                                       !- Do Zone Sizing Calculation
  ,                                       !- Do System Sizing Calculation
  ,                                       !- Do Plant Sizing Calculation
  No,                                     !- Run Simulation for Sizing Periods
  ,                                       !- Run Simulation for Weather File Run Periods
  0.04,                                   !- Loads Convergence Tolerance Value
  ,                                       !- Temperature Convergence Tolerance Value {deltaC}
  ,                                       !- Solar Distribution
  ,                                       !- Maximum Number of Warmup Days
  2;                                      !- Minimum Number of Warmup Days

OS:Sizing:Parameters,
  {dde5af6f-7923-4600-a28a-7556673a0266}, !- Handle
  1.25,                                   !- Heating Sizing Factor
  1.15;                                   !- Cooling Sizing Factor

OS:ProgramControl,
  {05027a99-f2b3-4aeb-afc6-1425fbb4371d}; !- Handle

OS:Timestep,
  {4ebc9f1e-4707-402e-9844-67eb1ffbd522}, !- Handle
  2;                                      !- Number of Timesteps per Hour

OS:OutputControl:ReportingTolerances,
  {65797aa2-06a9-45fe-b69d-bc6e060399d3}; !- Handle

OS:ConvergenceLimits,
  {9fc11aba-8822-4f3d-970c-46391ba4040d}; !- Handle

OS:ShadowCalculation,
  {ca758bea-4416-4626-9bba-3d8795c79bd6}, !- Handle
  7,                                      !- Calculation Frequency
  15000;                                  !- Maximum Figures in Shadow Overlap Calculations

OS:SurfaceConvectionAlgorithm:Inside,
  {aaabfc36-718a-4ab0-b622-f186ebb45230}, !- Handle
  TARP;                                   !- Algorithm

OS:SurfaceConvectionAlgorithm:Outside,
  {9a0a9f6f-4bbd-4b12-a121-9492a1fcd7d6}, !- Handle
  DOE-2;                                  !- Algorithm

OS:HeatBalanceAlgorithm,
  {9d93e563-e1e0-46d7-9e39-d1c8aceb7212}, !- Handle
  ConductionTransferFunction,             !- Algorithm
  200;                                    !- Surface Temperature Upper Limit {F}

OS:ZoneAirHeatBalanceAlgorithm,
  {8520d93e-310f-4696-9bcd-36228bfdd743}, !- Handle
  AnalyticalSolution;                     !- Algorithm

OS:ZoneAirContaminantBalance,
  {eb5fc3ae-fb22-4160-8fcb-3e3b22b000d3}; !- Handle

OS:ZoneCapacitanceMultiplier:ResearchSpecial,
  {4020ce4f-5a7a-4849-8028-8305d7b751b1}, !- Handle
  ,                                       !- Temperature Capacity Multiplier
  ,                                       !- Humidity Capacity Multiplier
  ;                                       !- Carbon Dioxide Capacity Multiplier

OS:RunPeriod,
  {28df894d-6af9-4fb8-8f56-df1753344aa3}, !- Handle
  Run Period 1,                           !- Name
  1,                                      !- Begin Month
  1,                                      !- Begin Day of Month
  12,                                     !- End Month
  31,                                     !- End Day of Month
  ,                                       !- Use Weather File Holidays and Special Days
  ,                                       !- Use Weather File Daylight Saving Period
  ,                                       !- Apply Weekend Holiday Rule
  ,                                       !- Use Weather File Rain Indicators
  ,                                       !- Use Weather File Snow Indicators
  ;                                       !- Number of Times Runperiod to be Repeated

OS:Building,
  {bf305633-c5a1-4881-9edf-ca5e1a8e1274}, !- Handle
  Building 1,                             !- Name
  ,                                       !- Building Sector Type
  ,                                       !- North Axis {deg}
  ,                                       !- Nominal Floor to Floor Height {m}
  ,                                       !- Space Type Name
  ,                                       !- Default Construction Set Name
  {1b0c90f8-779a-4db6-9061-eb45caf39a19}, !- Default Schedule Set Name
  ,                                       !- Standards Number of Stories
  ,                                       !- Standards Number of Above Ground Stories
  Hospital;                               !- Standards Building Type

OS:LifeCycleCost:Parameters,
  {231cf8a0-f0e7-4251-a99f-11f0d464e661}, !- Handle
  FEMP,                                   !- Analysis Type
  ,                                       !- Discounting Convention
  ,                                       !- Inflation Approach
  ,                                       !- Real Discount Rate
  ,                                       !- Nominal Discount Rate
  ,                                       !- Inflation
  ,                                       !- Base Date Month
  ,                                       !- Base Date Year
  ,                                       !- Service Date Month
  ,                                       !- Service Date Year
  ,                                       !- Length of Study Period in Years
  ,                                       !- Tax Rate
  ,                                       !- Depreciation Method
  Yes;                                    !- Use NIST Fuel Escalation Rates

OS:Facility,
  {3ba8e45b-b833-44eb-a723-ea6c3946dc96}; !- Handle

OS:SpaceType,
  {f1266bec-ef2d-4250-bc57-364bfbcffb04}, !- Handle
  Hospital|BlendPat|DOE Ref 2004|ASHRAE 169-2006-5A, !- Name
  {590e8729-f64f-4947-8a9a-c990a982bfc3}, !- Default Construction Set Name
  ,                                       !- Default Schedule Set Name
  {0009c2bd-be43-4ab2-8eda-8626779512c7}, !- Group Rendering Name
  {267d579f-a26c-4290-8ea2-3c1a9482f0dc}, !- Design Specification Outdoor Air Object Name
  Hospital,                               !- Standards Building Type
  BlendPat;                               !- Standards Space Type

OS:Rendering:Color,
  {0009c2bd-be43-4ab2-8eda-8626779512c7}, !- Handle
  Rendering Color 1,                      !- Name
  31,                                     !- Rendering Red Value
  162,                                    !- Rendering Green Value
  169;                                    !- Rendering Blue Value

OS:SpaceType,
  {8148fc08-2229-4f9e-92f1-517c8fd47697}, !- Handle
  Hospital|BlendCirc|DOE Ref 2004|ASHRAE 169-2006-5A, !- Name
  {590e8729-f64f-4947-8a9a-c990a982bfc3}, !- Default Construction Set Name
  ,                                       !- Default Schedule Set Name
  {1348418a-7e81-483d-82ac-ea440ca69207}, !- Group Rendering Name
  {3a186614-a9fe-4e61-913a-9a4e5cfca58f}, !- Design Specification Outdoor Air Object Name
  Hospital,                               !- Standards Building Type
  BlendCirc;                              !- Standards Space Type

OS:Rendering:Color,
  {1348418a-7e81-483d-82ac-ea440ca69207}, !- Handle
  Rendering Color 2,                      !- Name
  169,                                    !- Rendering Red Value
  31,                                     !- Rendering Green Value
  31;                                     !- Rendering Blue Value

OS:SpaceType,
  {e4338c8b-4f05-4c32-a7a0-c247e56c463c}, !- Handle
  Hospital|Kitchen|DOE Ref 2004|ASHRAE 169-2006-5A, !- Name
  {590e8729-f64f-4947-8a9a-c990a982bfc3}, !- Default Construction Set Name
  {e45943d3-1b12-4c99-8d93-b5b5911d8dc0}, !- Default Schedule Set Name
  {16179ab7-dbc2-41c1-b5c3-289dc8612c8c}, !- Group Rendering Name
  {b57332b7-f30e-4811-a666-d29dd11e117e}, !- Design Specification Outdoor Air Object Name
  Hospital,                               !- Standards Building Type
  Kitchen;                                !- Standards Space Type

OS:Rendering:Color,
  {16179ab7-dbc2-41c1-b5c3-289dc8612c8c}, !- Handle
  Rendering Color 3,                      !- Name
  78,                                     !- Rendering Red Value
  222,                                    !- Rendering Green Value
  133;                                    !- Rendering Blue Value

OS:SpaceType,
  {8602e009-fd63-4f2a-9e35-a413bccef6f8}, !- Handle
  Hospital|Dining|DOE Ref 2004|ASHRAE 169-2006-5A, !- Name
  {590e8729-f64f-4947-8a9a-c990a982bfc3}, !- Default Construction Set Name
  {3ce46b6f-ffdc-455d-b933-bb01f7b3fbdd}, !- Default Schedule Set Name
  {55d251ea-5b93-41ff-a387-3d33bf7c4978}, !- Group Rendering Name
  {756e7a0e-1fd6-49a7-8a0c-5143eecd3d35}, !- Design Specification Outdoor Air Object Name
  Hospital,                               !- Standards Building Type
  Dining;                                 !- Standards Space Type

OS:Rendering:Color,
  {55d251ea-5b93-41ff-a387-3d33bf7c4978}, !- Handle
  Rendering Color 4,                      !- Name
  31,                                     !- Rendering Red Value
  169,                                    !- Rendering Green Value
  34;                                     !- Rendering Blue Value

OS:SpaceType,
  {e98df33c-dfbb-4fbe-8308-cb14018c27b3}, !- Handle
  Hospital|Lab|DOE Ref 2004|ASHRAE 169-2006-5A, !- Name
  {590e8729-f64f-4947-8a9a-c990a982bfc3}, !- Default Construction Set Name
  {8f4cd307-3e64-462e-94d8-2a6adb152bb4}, !- Default Schedule Set Name
  {17c356a8-0135-489d-af87-8ea10881106f}, !- Group Rendering Name
  {27695606-e708-41ad-88eb-faf355d15229}, !- Design Specification Outdoor Air Object Name
  Hospital,                               !- Standards Building Type
  Lab;                                    !- Standards Space Type

OS:Rendering:Color,
  {17c356a8-0135-489d-af87-8ea10881106f}, !- Handle
  Rendering Color 5,                      !- Name
  204,                                    !- Rendering Red Value
  120,                                    !- Rendering Green Value
  230;                                    !- Rendering Blue Value

OS:SpaceType,
  {d8770476-8bcc-4380-819e-2ecb8535f21c}, !- Handle
  Hospital|Radiology|DOE Ref 2004|ASHRAE 169-2006-5A, !- Name
  {590e8729-f64f-4947-8a9a-c990a982bfc3}, !- Default Construction Set Name
  {d7a95428-1805-413a-b51f-6cad279df6b7}, !- Default Schedule Set Name
  {fb299178-ea7d-40dc-bfba-8d616b0fe65d}, !- Group Rendering Name
  {c5935767-95a7-47db-8760-887eace3f9b0}, !- Design Specification Outdoor Air Object Name
  Hospital,                               !- Standards Building Type
  Radiology;                              !- Standards Space Type

OS:Rendering:Color,
  {fb299178-ea7d-40dc-bfba-8d616b0fe65d}, !- Handle
  Rendering Color 6,                      !- Name
  136,                                    !- Rendering Red Value
  78,                                     !- Rendering Green Value
  222;                                    !- Rendering Blue Value

OS:Schedule:Ruleset,
  {8e2a5ec3-bf00-47f1-a040-7c6b02b02474}, !- Handle
  0400|2200|Hospital|default|hoo,         !- Name
  {f5ab2585-5bef-474f-8e61-71a5ae295660}, !- Schedule Type Limits Name
  {4198d6c2-e925-48cf-b926-603d25e15dd5}, !- Default Day Schedule Name
  {2d78ef6b-17b9-4ae3-91b8-1f0a9da7563a}, !- Summer Design Day Schedule Name
  {d53b98c2-7e43-4d15-bf6f-73a4feb5345c}; !- Winter Design Day Schedule Name

OS:Schedule:Day,
  {4198d6c2-e925-48cf-b926-603d25e15dd5}, !- Handle
  0400|2200|Hospital|default|hoo Schedule Week Day, !- Name
  {f5ab2585-5bef-474f-8e61-71a5ae295660}, !- Schedule Type Limits Name
  ,                                       !- Interpolate to Timestep
  4,                                      !- Hour 1
  0,                                      !- Minute 1
  0,                                      !- Value Until Time 1
  22,                                     !- Hour 2
  0,                                      !- Minute 2
  1,                                      !- Value Until Time 2
  24,                                     !- Hour 3
  0,                                      !- Minute 3
  0;                                      !- Value Until Time 3

OS:Schedule:Day,
  {e48d95b2-c7db-4bc7-8ad2-2958d6b7a67f}, !- Handle
  Schedule Day 2,                         !- Name
  ,                                       !- Schedule Type Limits Name
  ,                                       !- Interpolate to Timestep
  24,                                     !- Hour 1
  0,                                      !- Minute 1
  0;                                      !- Value Until Time 1

OS:Schedule:Day,
  {d53b98c2-7e43-4d15-bf6f-73a4feb5345c}, !- Handle
  0400|2200|Hospital|default|hoo Winter Design Day, !- Name
  {f5ab2585-5bef-474f-8e61-71a5ae295660}, !- Schedule Type Limits Name
  ,                                       !- Interpolate to Timestep
  24,                                     !- Hour 1
  0,                                      !- Minute 1
  0;                                      !- Value Until Time 1

OS:Schedule:Day,
  {cb85b82a-bac2-425b-b9f6-1102918dc3ad}, !- Handle
  Schedule Day 3,                         !- Name
  ,                                       !- Schedule Type Limits Name
  ,                                       !- Interpolate to Timestep
  24,                                     !- Hour 1
  0,                                      !- Minute 1
  0;                                      !- Value Until Time 1

OS:Schedule:Day,
  {2d78ef6b-17b9-4ae3-91b8-1f0a9da7563a}, !- Handle
  0400|2200|Hospital|default|hoo Summer Design Day, !- Name
  {f5ab2585-5bef-474f-8e61-71a5ae295660}, !- Schedule Type Limits Name
  ,                                       !- Interpolate to Timestep
  24,                                     !- Hour 1
  0,                                      !- Minute 1
  1;                                      !- Value Until Time 1

OS:DefaultScheduleSet,
  {1b0c90f8-779a-4db6-9061-eb45caf39a19}, !- Handle
  Building Hours of Operation,            !- Name
  {8e2a5ec3-bf00-47f1-a040-7c6b02b02474}, !- Hours of Operation Schedule Name
  ,                                       !- Number of People Schedule Name
  ,                                       !- People Activity Level Schedule Name
  ,                                       !- Lighting Schedule Name
  ,                                       !- Electric Equipment Schedule Name
  ,                                       !- Gas Equipment Schedule Name
  ,                                       !- Hot Water Equipment Schedule Name
  ,                                       !- Infiltration Schedule Name
  ,                                       !- Steam Equipment Schedule Name
  ;                                       !- Other Equipment Schedule Name

OS:ScheduleTypeLimits,
  {f5ab2585-5bef-474f-8e61-71a5ae295660}, !- Handle
  OnOff,                                  !- Name
  0,                                      !- Lower Limit Value {BasedOnField A4}
  1,                                      !- Upper Limit Value {BasedOnField A4}
  Discrete,                               !- Numeric Type
  Availability;                           !- Unit Type

OS:Schedule:Ruleset,
  {fbd7ef42-7c1d-448b-8d84-f8c22612334a}, !- Handle
  0400|2200|Hospital|ER_NurseStn|htg_setpoint, !- Name
  {a5092fba-93d8-4e10-a331-09fa7f1a9a6f}, !- Schedule Type Limits Name
  {5be87ea0-d47a-4d4e-bd13-587c86ec815a}, !- Default Day Schedule Name
  {a519c847-54af-4172-8509-40ad50958d62}, !- Summer Design Day Schedule Name
  {7f1694d3-bc8c-4122-be76-371c291536da}; !- Winter Design Day Schedule Name

OS:ScheduleTypeLimits,
  {a5092fba-93d8-4e10-a331-09fa7f1a9a6f}, !- Handle
  Thermostat Heating Setpoint Schedule Type Limits, !- Name
  0,                                      !- Lower Limit Value {BasedOnField A4}
  100,                                    !- Upper Limit Value {BasedOnField A4}
  Continuous,                             !- Numeric Type
  Temperature;                            !- Unit Type

OS:Schedule:Day,
  {5be87ea0-d47a-4d4e-bd13-587c86ec815a}, !- Handle
  0400|2200|Hospital|ER_NurseStn|htg_setpoint |default, !- Name
  {a5092fba-93d8-4e10-a331-09fa7f1a9a6f}, !- Schedule Type Limits Name
  ,                                       !- Interpolate to Timestep
  24,                                     !- Hour 1
  0,                                      !- Minute 1
  21.1;                                   !- Value Until Time 1

OS:Schedule:Day,
  {a519c847-54af-4172-8509-40ad50958d62}, !- Handle
  0400|2200|Hospital|ER_NurseStn|htg_setpoint Summer Design Day, !- Name
  {a5092fba-93d8-4e10-a331-09fa7f1a9a6f}, !- Schedule Type Limits Name
  ,                                       !- Interpolate to Timestep
  24,                                     !- Hour 1
  0,                                      !- Minute 1
  21.1;                                   !- Value Until Time 1

OS:Schedule:Day,
  {7f1694d3-bc8c-4122-be76-371c291536da}, !- Handle
  0400|2200|Hospital|ER_NurseStn|htg_setpoint Winter Design Day, !- Name
  {a5092fba-93d8-4e10-a331-09fa7f1a9a6f}, !- Schedule Type Limits Name
  ,                                       !- Interpolate to Timestep
  24,                                     !- Hour 1
  0,                                      !- Minute 1
  21.1;                                   !- Value Until Time 1

OS:Schedule:Ruleset,
  {8d3bfe35-72b4-4589-b88f-503a550e902e}, !- Handle
  0400|2200|Hospital|ER_Triage|lighting,  !- Name
  {87720992-1dac-4d63-802b-5a7e651d4ec1}, !- Schedule Type Limits Name
  {6ef973cf-fa64-47d6-b3a2-8f4d02a299da}, !- Default Day Schedule Name
  {e834ad0d-b703-46be-a21f-bddd96f3f84c}, !- Summer Design Day Schedule Name
  {8290c40b-68e8-4c9f-a03e-1f28ca6170c0}; !- Winter Design Day Schedule Name

OS:ScheduleTypeLimits,
  {87720992-1dac-4d63-802b-5a7e651d4ec1}, !- Handle
  Lights Schedule Type Limits,            !- Name
  0,                                      !- Lower Limit Value {BasedOnField A4}
  1,                                      !- Upper Limit Value {BasedOnField A4}
  Continuous,                             !- Numeric Type
  Dimensionless;                          !- Unit Type

OS:Schedule:Day,
  {6ef973cf-fa64-47d6-b3a2-8f4d02a299da}, !- Handle
  0400|2200|Hospital|ER_Triage|lighting |default, !- Name
  {87720992-1dac-4d63-802b-5a7e651d4ec1}, !- Schedule Type Limits Name
  ,                                       !- Interpolate to Timestep
  4,                                      !- Hour 1
  0,                                      !- Minute 1
  0.5,                                    !- Value Until Time 1
  6,                                      !- Hour 2
  0,                                      !- Minute 2
  0.7,                                    !- Value Until Time 2
  18,                                     !- Hour 3
  0,                                      !- Minute 3
  0.9,                                    !- Value Until Time 3
  22,                                     !- Hour 4
  0,                                      !- Minute 4
  0.7,                                    !- Value Until Time 4
  24,                                     !- Hour 5
  0,                                      !- Minute 5
  0.5;                                    !- Value Until Time 5

OS:Schedule:Day,
  {e834ad0d-b703-46be-a21f-bddd96f3f84c}, !- Handle
  0400|2200|Hospital|ER_Triage|lighting Summer Design Day, !- Name
  {87720992-1dac-4d63-802b-5a7e651d4ec1}, !- Schedule Type Limits Name
  ,                                       !- Interpolate to Timestep
  24,                                     !- Hour 1
  0,                                      !- Minute 1
  1;                                      !- Value Until Time 1

OS:Schedule:Day,
  {8290c40b-68e8-4c9f-a03e-1f28ca6170c0}, !- Handle
  0400|2200|Hospital|ER_Triage|lighting Winter Design Day, !- Name
  {87720992-1dac-4d63-802b-5a7e651d4ec1}, !- Schedule Type Limits Name
  ,                                       !- Interpolate to Timestep
  24,                                     !- Hour 1
  0,                                      !- Minute 1
  0.5;                                    !- Value Until Time 1

OS:Schedule:Ruleset,
  {99d47d4d-a04b-4263-b3cc-3ae06603b1f9}, !- Handle
  0400|2200|Hospital|PatRoom|clg_setpoint, !- Name
  {5538983d-2e44-4d7e-ba79-ff09aa6357a4}, !- Schedule Type Limits Name
  {f37fb739-b2d1-403e-b05d-b86acd0fa1ac}, !- Default Day Schedule Name
  {5183c688-1feb-46e1-9efc-3a26b921a697}, !- Summer Design Day Schedule Name
  {32aafe03-0bc5-4de9-a6ec-1293af6e069f}; !- Winter Design Day Schedule Name

OS:ScheduleTypeLimits,
  {5538983d-2e44-4d7e-ba79-ff09aa6357a4}, !- Handle
  Thermostat Cooling Setpoint Schedule Type Limits, !- Name
  0,                                      !- Lower Limit Value {BasedOnField A4}
  100,                                    !- Upper Limit Value {BasedOnField A4}
  Continuous,                             !- Numeric Type
  Temperature;                            !- Unit Type

OS:Schedule:Day,
  {f37fb739-b2d1-403e-b05d-b86acd0fa1ac}, !- Handle
  0400|2200|Hospital|PatRoom|clg_setpoint |default, !- Name
  {5538983d-2e44-4d7e-ba79-ff09aa6357a4}, !- Schedule Type Limits Name
  ,                                       !- Interpolate to Timestep
  24,                                     !- Hour 1
  0,                                      !- Minute 1
  22.2;                                   !- Value Until Time 1

OS:Schedule:Day,
  {5183c688-1feb-46e1-9efc-3a26b921a697}, !- Handle
  0400|2200|Hospital|PatRoom|clg_setpoint Summer Design Day, !- Name
  {5538983d-2e44-4d7e-ba79-ff09aa6357a4}, !- Schedule Type Limits Name
  ,                                       !- Interpolate to Timestep
  24,                                     !- Hour 1
  0,                                      !- Minute 1
  22.2;                                   !- Value Until Time 1

OS:Schedule:Day,
  {32aafe03-0bc5-4de9-a6ec-1293af6e069f}, !- Handle
  0400|2200|Hospital|PatRoom|clg_setpoint Winter Design Day, !- Name
  {5538983d-2e44-4d7e-ba79-ff09aa6357a4}, !- Schedule Type Limits Name
  ,                                       !- Interpolate to Timestep
  24,                                     !- Hour 1
  0,                                      !- Minute 1
  22.2;                                   !- Value Until Time 1

OS:Schedule:Ruleset,
  {87799d91-01f1-4455-8eac-91376f3ef27e}, !- Handle
  0400|2200|Hospital|default|htg_setpoint, !- Name
  {a5092fba-93d8-4e10-a331-09fa7f1a9a6f}, !- Schedule Type Limits Name
  {a7d00413-d0a7-492a-bf6d-1a4692ed13e5}, !- Default Day Schedule Name
  {e1368dd1-a742-4972-a39f-15009bb80b42}, !- Summer Design Day Schedule Name
  {e55e20d2-208e-4688-a525-248b8b39ad2b}; !- Winter Design Day Schedule Name

OS:Schedule:Day,
  {a7d00413-d0a7-492a-bf6d-1a4692ed13e5}, !- Handle
  0400|2200|Hospital|default|htg_setpoint |default, !- Name
  {a5092fba-93d8-4e10-a331-09fa7f1a9a6f}, !- Schedule Type Limits Name
  ,                                       !- Interpolate to Timestep
  5,                                      !- Hour 1
  0,                                      !- Minute 1
  18.3,                                   !- Value Until Time 1
  18,                                     !- Hour 2
  0,                                      !- Minute 2
  21.1,                                   !- Value Until Time 2
  24,                                     !- Hour 3
  0,                                      !- Minute 3
  18.3;                                   !- Value Until Time 3

OS:Schedule:Day,
  {e1368dd1-a742-4972-a39f-15009bb80b42}, !- Handle
  0400|2200|Hospital|default|htg_setpoint Summer Design Day, !- Name
  {a5092fba-93d8-4e10-a331-09fa7f1a9a6f}, !- Schedule Type Limits Name
  ,                                       !- Interpolate to Timestep
  5,                                      !- Hour 1
  0,                                      !- Minute 1
  18.3,                                   !- Value Until Time 1
  18,                                     !- Hour 2
  0,                                      !- Minute 2
  21.1,                                   !- Value Until Time 2
  24,                                     !- Hour 3
  0,                                      !- Minute 3
  18.3;                                   !- Value Until Time 3

OS:Schedule:Day,
  {e55e20d2-208e-4688-a525-248b8b39ad2b}, !- Handle
  0400|2200|Hospital|default|htg_setpoint Winter Design Day, !- Name
  {a5092fba-93d8-4e10-a331-09fa7f1a9a6f}, !- Schedule Type Limits Name
  ,                                       !- Interpolate to Timestep
  24,                                     !- Hour 1
  0,                                      !- Minute 1
  18.3;                                   !- Value Until Time 1

OS:Schedule:Rule,
  {e25ec447-595a-4000-87e6-b5c257076d56}, !- Handle
  0400|2200|Hospital|default|htg_setpoint |1/1-12/31|Sat/Sun Rule, !- Name
  {87799d91-01f1-4455-8eac-91376f3ef27e}, !- Schedule Ruleset Name
  0,                                      !- Rule Order
  {7adc2188-605e-478a-beac-f0f4e5e6c2c2}, !- Day Schedule Name
  Yes,                                    !- Apply Sunday
  ,                                       !- Apply Monday
  ,                                       !- Apply Tuesday
  ,                                       !- Apply Wednesday
  ,                                       !- Apply Thursday
  ,                                       !- Apply Friday
  Yes,                                    !- Apply Saturday
  ,                                       !- Apply Holiday
  DateRange,                              !- Date Specification Type
  1,                                      !- Start Month
  1,                                      !- Start Day
  12,                                     !- End Month
  31;                                     !- End Day

OS:Schedule:Day,
  {7adc2188-605e-478a-beac-f0f4e5e6c2c2}, !- Handle
  0400|2200|Hospital|default|htg_setpoint |1/1-12/31|Sat/Sun, !- Name
  {a5092fba-93d8-4e10-a331-09fa7f1a9a6f}, !- Schedule Type Limits Name
  ,                                       !- Interpolate to Timestep
  24,                                     !- Hour 1
  0,                                      !- Minute 1
  18.3;                                   !- Value Until Time 1

OS:Schedule:Ruleset,
  {d717f384-6d98-4b92-88d2-72e09769e3e9}, !- Handle
  0400|2200|Hospital|default|ext_lighting, !- Name
  {87720992-1dac-4d63-802b-5a7e651d4ec1}, !- Schedule Type Limits Name
  {a02e569c-f86a-4680-add0-c944898ce2a6}, !- Default Day Schedule Name
  {1a2b6756-01a2-46f6-bbb5-5bbee7ec9966}, !- Summer Design Day Schedule Name
  {fbd7979a-036c-47ab-9c14-f84cfb504ea5}; !- Winter Design Day Schedule Name

OS:Schedule:Day,
  {a02e569c-f86a-4680-add0-c944898ce2a6}, !- Handle
  0400|2200|Hospital|default|ext_lighting |default, !- Name
  {87720992-1dac-4d63-802b-5a7e651d4ec1}, !- Schedule Type Limits Name
  ,                                       !- Interpolate to Timestep
  24,                                     !- Hour 1
  0,                                      !- Minute 1
  1;                                      !- Value Until Time 1

OS:Schedule:Day,
  {1a2b6756-01a2-46f6-bbb5-5bbee7ec9966}, !- Handle
  0400|2200|Hospital|default|ext_lighting Summer Design Day, !- Name
  {87720992-1dac-4d63-802b-5a7e651d4ec1}, !- Schedule Type Limits Name
  ,                                       !- Interpolate to Timestep
  24,                                     !- Hour 1
  0,                                      !- Minute 1
  1;                                      !- Value Until Time 1

OS:Schedule:Day,
  {fbd7979a-036c-47ab-9c14-f84cfb504ea5}, !- Handle
  0400|2200|Hospital|default|ext_lighting Winter Design Day, !- Name
  {87720992-1dac-4d63-802b-5a7e651d4ec1}, !- Schedule Type Limits Name
  ,                                       !- Interpolate to Timestep
  24,                                     !- Hour 1
  0,                                      !- Minute 1
  1;                                      !- Value Until Time 1

OS:Schedule:Ruleset,
  {a944c3ab-fab5-401c-ab1b-48c9da7edd07}, !- Handle
  0400|2200|Hospital|ER_Trauma|lighting,  !- Name
  {87720992-1dac-4d63-802b-5a7e651d4ec1}, !- Schedule Type Limits Name