
OS:Version,
  {56cacf23-981f-4302-a09e-003c2b9dbaea}, !- Handle
  1.5.5;                                  !- Version Identifier

OS:ClimateZones,
  {135edfab-17e7-40db-a436-27d385a8cd6d}, !- Handle
  ,                                       !- Active Institution
  ,                                       !- Active Year
  ASHRAE,                                 !- Climate Zone Institution Name 1
  ANSI/ASHRAE Standard 169,               !- Climate Zone Document Name 1
  2006,                                   !- Climate Zone Document Year 1
  ,                                       !- Climate Zone Value 1
  CEC,                                    !- Climate Zone Institution Name 2
  California Climate Zone Descriptions,   !- Climate Zone Document Name 2
  1995,                                   !- Climate Zone Document Year 2
  ;                                       !- Climate Zone Value 2

OS:YearDescription,
  {513d8dda-86cb-442a-b01c-1f7f0e0ac70e}; !- Handle

OS:RadianceParameters,
  {270a96f1-3c86-4b75-a667-cdf22790e2c8}, !- Handle
  1,                                      !- Accumulated Rays per Record
  0,                                      !- Direct Threshold
  1,                                      !- Direct Certainty
  1,                                      !- Direct Jitter
  1,                                      !- Direct Pretest
  6,                                      !- Ambient Bounces VMX
  2,                                      !- Ambient Bounces DMX
  4050,                                   !- Ambient Divisions VMX
  512,                                    !- Ambient Divisions DMX
  256,                                    !- Ambient Supersamples
  0.001,                                  !- Limit Weight VMX
  0.001,                                  !- Limit Weight DMX
  500,                                    !- Klems Sampling Density
  146;                                    !- Sky Discretization Resolution

OS:SimulationControl,
  {2c487a4c-bac9-4ac5-b669-1e49d9da7c2b}, !- Handle
  ,                                       !- Do Zone Sizing Calculation
  ,                                       !- Do System Sizing Calculation
  ,                                       !- Do Plant Sizing Calculation
  No,                                     !- Run Simulation for Sizing Periods
  ,                                       !- Run Simulation for Weather File Run Periods
  0.04,                                   !- Loads Convergence Tolerance Value
  ,                                       !- Temperature Convergence Tolerance Value {deltaC}
  ,                                       !- Solar Distribution
  ,                                       !- Maximum Number of Warmup Days
  2;                                      !- Minimum Number of Warmup Days

OS:Sizing:Parameters,
  {dde5af6f-7923-4600-a28a-7556673a0266}, !- Handle
  1.25,                                   !- Heating Sizing Factor
  1.15;                                   !- Cooling Sizing Factor

OS:ProgramControl,
  {05027a99-f2b3-4aeb-afc6-1425fbb4371d}; !- Handle

OS:Timestep,
  {4ebc9f1e-4707-402e-9844-67eb1ffbd522}, !- Handle
  2;                                      !- Number of Timesteps per Hour

OS:OutputControl:ReportingTolerances,
  {65797aa2-06a9-45fe-b69d-bc6e060399d3}; !- Handle

OS:ConvergenceLimits,
  {9fc11aba-8822-4f3d-970c-46391ba4040d}; !- Handle

OS:ShadowCalculation,
  {ca758bea-4416-4626-9bba-3d8795c79bd6}, !- Handle
  7,                                      !- Calculation Frequency
  15000;                                  !- Maximum Figures in Shadow Overlap Calculations

OS:SurfaceConvectionAlgorithm:Inside,
  {aaabfc36-718a-4ab0-b622-f186ebb45230}, !- Handle
  TARP;                                   !- Algorithm

OS:SurfaceConvectionAlgorithm:Outside,
  {9a0a9f6f-4bbd-4b12-a121-9492a1fcd7d6}, !- Handle
  DOE-2;                                  !- Algorithm

OS:HeatBalanceAlgorithm,
  {9d93e563-e1e0-46d7-9e39-d1c8aceb7212}, !- Handle
  ConductionTransferFunction,             !- Algorithm
  200;                                    !- Surface Temperature Upper Limit {F}

OS:ZoneAirHeatBalanceAlgorithm,
  {8520d93e-310f-4696-9bcd-36228bfdd743}, !- Handle
  AnalyticalSolution;                     !- Algorithm

OS:ZoneAirContaminantBalance,
  {eb5fc3ae-fb22-4160-8fcb-3e3b22b000d3}; !- Handle

OS:ZoneCapacitanceMultiplier:ResearchSpecial,
  {4020ce4f-5a7a-4849-8028-8305d7b751b1}, !- Handle
  ,                                       !- Temperature Capacity Multiplier
  ,                                       !- Humidity Capacity Multiplier
  ;                                       !- Carbon Dioxide Capacity Multiplier

OS:RunPeriod,
  {28df894d-6af9-4fb8-8f56-df1753344aa3}, !- Handle
  Run Period 1,                           !- Name
  1,                                      !- Begin Month
  1,                                      !- Begin Day of Month
  12,                                     !- End Month
  31,                                     !- End Day of Month
  ,                                       !- Use Weather File Holidays and Special Days
  ,                                       !- Use Weather File Daylight Saving Period
  ,                                       !- Apply Weekend Holiday Rule
  ,                                       !- Use Weather File Rain Indicators
  ,                                       !- Use Weather File Snow Indicators
  ;                                       !- Number of Times Runperiod to be Repeated

OS:Building,
  {bf305633-c5a1-4881-9edf-ca5e1a8e1274}, !- Handle
  Building 1,                             !- Name
  ,                                       !- Building Sector Type
  ,                                       !- North Axis {deg}
  ,                                       !- Nominal Floor to Floor Height {m}
  ,                                       !- Space Type Name
  ,                                       !- Default Construction Set Name
  {90c5a20a-caf3-44cb-8fda-721a4ceb1474}, !- Default Schedule Set Name
  ,                                       !- Standards Number of Stories
  ,                                       !- Standards Number of Above Ground Stories
  Hospital;                               !- Standards Building Type

OS:LifeCycleCost:Parameters,
  {231cf8a0-f0e7-4251-a99f-11f0d464e661}, !- Handle
  FEMP,                                   !- Analysis Type
  ,                                       !- Discounting Convention
  ,                                       !- Inflation Approach
  ,                                       !- Real Discount Rate
  ,                                       !- Nominal Discount Rate
  ,                                       !- Inflation
  ,                                       !- Base Date Month
  ,                                       !- Base Date Year
  ,                                       !- Service Date Month
  ,                                       !- Service Date Year
  ,                                       !- Length of Study Period in Years
  ,                                       !- Tax Rate
  ,                                       !- Depreciation Method
  Yes;                                    !- Use NIST Fuel Escalation Rates

OS:Facility,
  {3ba8e45b-b833-44eb-a723-ea6c3946dc96}; !- Handle

OS:SpaceType,
  {6971f571-0159-4644-968c-cf40268f48e0}, !- Handle
  Hospital|BlendPat|DOE Ref 1980-2004|ASHRAE 169-2006-5A, !- Name
  {fac27212-e702-4bda-acb6-fd0aaa1df326}, !- Default Construction Set Name
  ,                                       !- Default Schedule Set Name
  {4e6b7c67-198f-4b88-bb20-6035c64d791e}, !- Group Rendering Name
  {65496c8a-d6a8-4b54-9df4-96194f7ba9b8}, !- Design Specification Outdoor Air Object Name
  Hospital,                               !- Standards Building Type
  BlendPat;                               !- Standards Space Type

OS:Rendering:Color,
  {4e6b7c67-198f-4b88-bb20-6035c64d791e}, !- Handle
  Rendering Color 1,                      !- Name
  31,                                     !- Rendering Red Value
  162,                                    !- Rendering Green Value
  169;                                    !- Rendering Blue Value

OS:SpaceType,
  {e3195e7e-a7eb-4be8-a108-536b88170c0c}, !- Handle
  Hospital|BlendCirc|DOE Ref 1980-2004|ASHRAE 169-2006-5A, !- Name
  {fac27212-e702-4bda-acb6-fd0aaa1df326}, !- Default Construction Set Name
  ,                                       !- Default Schedule Set Name
  {65838cb0-90aa-4303-9423-d93ba1e571d6}, !- Group Rendering Name
  {091dd6c2-2007-44b3-b076-d1813dbe8ca0}, !- Design Specification Outdoor Air Object Name
  Hospital,                               !- Standards Building Type
  BlendCirc;                              !- Standards Space Type

OS:Rendering:Color,
  {65838cb0-90aa-4303-9423-d93ba1e571d6}, !- Handle
  Rendering Color 2,                      !- Name
  169,                                    !- Rendering Red Value
  31,                                     !- Rendering Green Value
  31;                                     !- Rendering Blue Value

OS:SpaceType,
  {57388a36-f5d8-4c7e-9e2d-03b8c8f7e599}, !- Handle
  Hospital|Kitchen|DOE Ref 1980-2004|ASHRAE 169-2006-5A, !- Name
  {fac27212-e702-4bda-acb6-fd0aaa1df326}, !- Default Construction Set Name
  {ac06bef2-8591-4e74-a02d-3799a6b857a4}, !- Default Schedule Set Name
  {c0b1c6c1-df2a-453c-a1fc-af4c018dce64}, !- Group Rendering Name
  {4fa65a33-c734-4eee-ae11-be2cf0e21f88}, !- Design Specification Outdoor Air Object Name
  Hospital,                               !- Standards Building Type
  Kitchen;                                !- Standards Space Type

OS:Rendering:Color,
  {c0b1c6c1-df2a-453c-a1fc-af4c018dce64}, !- Handle
  Rendering Color 3,                      !- Name
  78,                                     !- Rendering Red Value
  222,                                    !- Rendering Green Value
  133;                                    !- Rendering Blue Value

OS:SpaceType,
  {5ef1bcc0-f2b7-47f3-8f41-625d6d0c3a05}, !- Handle
  Hospital|Dining|DOE Ref 1980-2004|ASHRAE 169-2006-5A, !- Name
  {fac27212-e702-4bda-acb6-fd0aaa1df326}, !- Default Construction Set Name
  {983ef74f-fe81-4a1d-83de-3d2d3f375f7e}, !- Default Schedule Set Name
  {1c727257-7d45-4d40-b394-afa054e02e98}, !- Group Rendering Name
  {73dc54af-0148-4c1e-bc37-2c21126c5abb}, !- Design Specification Outdoor Air Object Name
  Hospital,                               !- Standards Building Type
  Dining;                                 !- Standards Space Type

OS:Rendering:Color,
  {1c727257-7d45-4d40-b394-afa054e02e98}, !- Handle
  Rendering Color 4,                      !- Name
  31,                                     !- Rendering Red Value
  169,                                    !- Rendering Green Value
  34;                                     !- Rendering Blue Value

OS:SpaceType,
  {ac50c0da-f835-41e7-bc25-1bafe368e94c}, !- Handle
  Hospital|Lab|DOE Ref 1980-2004|ASHRAE 169-2006-5A, !- Name
  {fac27212-e702-4bda-acb6-fd0aaa1df326}, !- Default Construction Set Name
  {5cdbbd9d-57d1-46c2-88d5-df5eac8d921e}, !- Default Schedule Set Name
  {4cc1f665-03ae-4ff6-890c-bee595a9500b}, !- Group Rendering Name
  {1c2ea4b6-1923-42ea-92b3-5ea5ffe42da3}, !- Design Specification Outdoor Air Object Name
  Hospital,                               !- Standards Building Type
  Lab;                                    !- Standards Space Type

OS:Rendering:Color,
  {4cc1f665-03ae-4ff6-890c-bee595a9500b}, !- Handle
  Rendering Color 5,                      !- Name
  204,                                    !- Rendering Red Value
  120,                                    !- Rendering Green Value
  230;                                    !- Rendering Blue Value

OS:SpaceType,
  {7978911a-1afd-4134-ab56-6379f7bd9085}, !- Handle
  Hospital|Radiology|DOE Ref 1980-2004|ASHRAE 169-2006-5A, !- Name
  {fac27212-e702-4bda-acb6-fd0aaa1df326}, !- Default Construction Set Name
  {e768b63b-557f-450b-8532-7c75f2a856b5}, !- Default Schedule Set Name
  {a5084dfd-26ef-4433-8dba-ef710134b40a}, !- Group Rendering Name
  {b1def6a6-0a48-4d16-9e64-945f005da2b1}, !- Design Specification Outdoor Air Object Name
  Hospital,                               !- Standards Building Type
  Radiology;                              !- Standards Space Type

OS:Rendering:Color,
  {a5084dfd-26ef-4433-8dba-ef710134b40a}, !- Handle
  Rendering Color 6,                      !- Name
  136,                                    !- Rendering Red Value
  78,                                     !- Rendering Green Value
  222;                                    !- Rendering Blue Value

OS:Schedule:Ruleset,
  {9719765e-3ca8-4031-ad6d-c5ec1b74bfc8}, !- Handle
  0400|2200|Hospital|default|hoo,         !- Name
  {7d1d1ede-4725-4b56-bc7b-57d4939eeee8}, !- Schedule Type Limits Name
  {97b8f140-eb9b-4295-aefe-85575fb1b59d}, !- Default Day Schedule Name
  {da1c3ef4-0c03-4458-8283-90e9ae2eac03}, !- Summer Design Day Schedule Name
  {610f7773-eecb-46dd-a618-8c29419e3b33}; !- Winter Design Day Schedule Name

OS:Schedule:Day,
  {97b8f140-eb9b-4295-aefe-85575fb1b59d}, !- Handle
  0400|2200|Hospital|default|hoo Schedule Week Day, !- Name
  {7d1d1ede-4725-4b56-bc7b-57d4939eeee8}, !- Schedule Type Limits Name
  ,                                       !- Interpolate to Timestep
  4,                                      !- Hour 1
  0,                                      !- Minute 1
  0,                                      !- Value Until Time 1
  22,                                     !- Hour 2
  0,                                      !- Minute 2
  1,                                      !- Value Until Time 2
  24,                                     !- Hour 3
  0,                                      !- Minute 3
  0;                                      !- Value Until Time 3

OS:Schedule:Day,
  {acb933f6-40e0-4fe6-a262-bfbb62db6c29}, !- Handle
  Schedule Day 2,                         !- Name
  ,                                       !- Schedule Type Limits Name
  ,                                       !- Interpolate to Timestep
  24,                                     !- Hour 1
  0,                                      !- Minute 1
  0;                                      !- Value Until Time 1

OS:Schedule:Day,
  {610f7773-eecb-46dd-a618-8c29419e3b33}, !- Handle
  0400|2200|Hospital|default|hoo Winter Design Day, !- Name
  {7d1d1ede-4725-4b56-bc7b-57d4939eeee8}, !- Schedule Type Limits Name
  ,                                       !- Interpolate to Timestep
  24,                                     !- Hour 1
  0,                                      !- Minute 1
  0;                                      !- Value Until Time 1

OS:Schedule:Day,
  {9972a84b-6fec-4ee9-a4f7-a53638b16d8b}, !- Handle
  Schedule Day 3,                         !- Name
  ,                                       !- Schedule Type Limits Name
  ,                                       !- Interpolate to Timestep
  24,                                     !- Hour 1
  0,                                      !- Minute 1
  0;                                      !- Value Until Time 1

OS:Schedule:Day,
  {da1c3ef4-0c03-4458-8283-90e9ae2eac03}, !- Handle
  0400|2200|Hospital|default|hoo Summer Design Day, !- Name
  {7d1d1ede-4725-4b56-bc7b-57d4939eeee8}, !- Schedule Type Limits Name
  ,                                       !- Interpolate to Timestep
  24,                                     !- Hour 1
  0,                                      !- Minute 1
  1;                                      !- Value Until Time 1

OS:DefaultScheduleSet,
  {90c5a20a-caf3-44cb-8fda-721a4ceb1474}, !- Handle
  Building Hours of Operation,            !- Name
  {9719765e-3ca8-4031-ad6d-c5ec1b74bfc8}, !- Hours of Operation Schedule Name
  ,                                       !- Number of People Schedule Name
  ,                                       !- People Activity Level Schedule Name
  ,                                       !- Lighting Schedule Name
  ,                                       !- Electric Equipment Schedule Name
  ,                                       !- Gas Equipment Schedule Name
  ,                                       !- Hot Water Equipment Schedule Name
  ,                                       !- Infiltration Schedule Name
  ,                                       !- Steam Equipment Schedule Name
  ;                                       !- Other Equipment Schedule Name

OS:ScheduleTypeLimits,
  {7d1d1ede-4725-4b56-bc7b-57d4939eeee8}, !- Handle
  OnOff,                                  !- Name
  0,                                      !- Lower Limit Value {BasedOnField A4}
  1,                                      !- Upper Limit Value {BasedOnField A4}
  Discrete,                               !- Numeric Type
  Availability;                           !- Unit Type

OS:Schedule:Ruleset,
  {2ebec29a-a325-4ff0-835a-bb489f7270cf}, !- Handle
  0400|2200|Hospital|ER_NurseStn|htg_setpoint, !- Name
  {a5292f24-3426-4441-af1d-a34b6bd6f70c}, !- Schedule Type Limits Name
  {e3941c28-877c-4fce-a69d-e8523c6f6685}, !- Default Day Schedule Name
  {507719f0-d819-4b1b-a798-ce33c2e8f396}, !- Summer Design Day Schedule Name
  {eea98d42-c173-443c-a601-db72e868618b}; !- Winter Design Day Schedule Name

OS:ScheduleTypeLimits,
  {a5292f24-3426-4441-af1d-a34b6bd6f70c}, !- Handle
  Thermostat Heating Setpoint Schedule Type Limits, !- Name
  0,                                      !- Lower Limit Value {BasedOnField A4}
  100,                                    !- Upper Limit Value {BasedOnField A4}
  Continuous,                             !- Numeric Type
  Temperature;                            !- Unit Type

OS:Schedule:Day,
  {e3941c28-877c-4fce-a69d-e8523c6f6685}, !- Handle
  0400|2200|Hospital|ER_NurseStn|htg_setpoint |default, !- Name
  {a5292f24-3426-4441-af1d-a34b6bd6f70c}, !- Schedule Type Limits Name
  ,                                       !- Interpolate to Timestep
  24,                                     !- Hour 1
  0,                                      !- Minute 1
  21.1;                                   !- Value Until Time 1

OS:Schedule:Day,
  {507719f0-d819-4b1b-a798-ce33c2e8f396}, !- Handle
  0400|2200|Hospital|ER_NurseStn|htg_setpoint Summer Design Day, !- Name
  {a5292f24-3426-4441-af1d-a34b6bd6f70c}, !- Schedule Type Limits Name
  ,                                       !- Interpolate to Timestep
  24,                                     !- Hour 1
  0,                                      !- Minute 1
  21.1;                                   !- Value Until Time 1

OS:Schedule:Day,
  {eea98d42-c173-443c-a601-db72e868618b}, !- Handle
  0400|2200|Hospital|ER_NurseStn|htg_setpoint Winter Design Day, !- Name
  {a5292f24-3426-4441-af1d-a34b6bd6f70c}, !- Schedule Type Limits Name
  ,                                       !- Interpolate to Timestep
  24,                                     !- Hour 1
  0,                                      !- Minute 1
  21.1;                                   !- Value Until Time 1

OS:Schedule:Ruleset,
  {d1dfd24a-7c49-4796-b95b-c23ebc806ddc}, !- Handle
  0400|2200|Hospital|ER_Triage|lighting,  !- Name
  {3d6c41eb-92f2-401b-b9eb-2f728def62a6}, !- Schedule Type Limits Name
  {008d0a8c-5bb8-4e4d-aecd-b920ed2ec16d}, !- Default Day Schedule Name
  {8df25607-c3bf-412d-a998-def75233303e}, !- Summer Design Day Schedule Name
  {099179cf-9c21-4c9a-804a-fc18f57f3c86}; !- Winter Design Day Schedule Name

OS:ScheduleTypeLimits,
  {3d6c41eb-92f2-401b-b9eb-2f728def62a6}, !- Handle
  Lights Schedule Type Limits,            !- Name
  0,                                      !- Lower Limit Value {BasedOnField A4}
  1,                                      !- Upper Limit Value {BasedOnField A4}
  Continuous,                             !- Numeric Type
  Dimensionless;                          !- Unit Type

OS:Schedule:Day,
  {008d0a8c-5bb8-4e4d-aecd-b920ed2ec16d}, !- Handle
  0400|2200|Hospital|ER_Triage|lighting |default, !- Name
  {3d6c41eb-92f2-401b-b9eb-2f728def62a6}, !- Schedule Type Limits Name
  ,                                       !- Interpolate to Timestep
  4,                                      !- Hour 1
  0,                                      !- Minute 1
  0.5,                                    !- Value Until Time 1
  6,                                      !- Hour 2
  0,                                      !- Minute 2
  0.7,                                    !- Value Until Time 2
  18,                                     !- Hour 3
  0,                                      !- Minute 3
  0.9,                                    !- Value Until Time 3
  22,                                     !- Hour 4
  0,                                      !- Minute 4
  0.7,                                    !- Value Until Time 4
  24,                                     !- Hour 5
  0,                                      !- Minute 5
  0.5;                                    !- Value Until Time 5

OS:Schedule:Day,
  {8df25607-c3bf-412d-a998-def75233303e}, !- Handle
  0400|2200|Hospital|ER_Triage|lighting Summer Design Day, !- Name
  {3d6c41eb-92f2-401b-b9eb-2f728def62a6}, !- Schedule Type Limits Name
  ,                                       !- Interpolate to Timestep
  24,                                     !- Hour 1
  0,                                      !- Minute 1
  1;                                      !- Value Until Time 1

OS:Schedule:Day,
  {099179cf-9c21-4c9a-804a-fc18f57f3c86}, !- Handle
  0400|2200|Hospital|ER_Triage|lighting Winter Design Day, !- Name
  {3d6c41eb-92f2-401b-b9eb-2f728def62a6}, !- Schedule Type Limits Name
  ,                                       !- Interpolate to Timestep
  24,                                     !- Hour 1
  0,                                      !- Minute 1
  0.5;                                    !- Value Until Time 1

OS:Schedule:Ruleset,
  {786b3515-e07b-4420-a8d1-a360c222979d}, !- Handle
  0400|2200|Hospital|PatRoom|clg_setpoint, !- Name
  {3aba6825-529d-428e-9877-061605d26d18}, !- Schedule Type Limits Name
  {9cd683de-cbac-44a5-9171-5c0d82d0d5f5}, !- Default Day Schedule Name
  {3cab2d55-7f0d-4aaf-a880-36d9675f4c42}, !- Summer Design Day Schedule Name
  {d5630972-e0e3-4dd4-a4ca-b733f66c645e}; !- Winter Design Day Schedule Name

OS:ScheduleTypeLimits,
  {3aba6825-529d-428e-9877-061605d26d18}, !- Handle
  Thermostat Cooling Setpoint Schedule Type Limits, !- Name
  0,                                      !- Lower Limit Value {BasedOnField A4}
  100,                                    !- Upper Limit Value {BasedOnField A4}
  Continuous,                             !- Numeric Type
  Temperature;                            !- Unit Type

OS:Schedule:Day,
  {9cd683de-cbac-44a5-9171-5c0d82d0d5f5}, !- Handle
  0400|2200|Hospital|PatRoom|clg_setpoint |default, !- Name
  {3aba6825-529d-428e-9877-061605d26d18}, !- Schedule Type Limits Name
  ,                                       !- Interpolate to Timestep
  24,                                     !- Hour 1
  0,                                      !- Minute 1
  22.2;                                   !- Value Until Time 1

OS:Schedule:Day,
  {3cab2d55-7f0d-4aaf-a880-36d9675f4c42}, !- Handle
  0400|2200|Hospital|PatRoom|clg_setpoint Summer Design Day, !- Name
  {3aba6825-529d-428e-9877-061605d26d18}, !- Schedule Type Limits Name
  ,                                       !- Interpolate to Timestep
  24,                                     !- Hour 1
  0,                                      !- Minute 1
  22.2;                                   !- Value Until Time 1

OS:Schedule:Day,
  {d5630972-e0e3-4dd4-a4ca-b733f66c645e}, !- Handle
  0400|2200|Hospital|PatRoom|clg_setpoint Winter Design Day, !- Name
  {3aba6825-529d-428e-9877-061605d26d18}, !- Schedule Type Limits Name
  ,                                       !- Interpolate to Timestep
  24,                                     !- Hour 1
  0,                                      !- Minute 1
  22.2;                                   !- Value Until Time 1

OS:Schedule:Ruleset,
  {90f09f63-f662-4060-a150-5bfcad1db44e}, !- Handle
  0400|2200|Hospital|default|htg_setpoint, !- Name
  {a5292f24-3426-4441-af1d-a34b6bd6f70c}, !- Schedule Type Limits Name
  {8efdf096-61b6-41b2-9312-f5d399b28b08}, !- Default Day Schedule Name
  {f356705b-b68e-4b71-b945-4d0cf9c7822d}, !- Summer Design Day Schedule Name
  {09ac31c1-584a-409a-9f42-1779523bd916}; !- Winter Design Day Schedule Name

OS:Schedule:Day,
  {8efdf096-61b6-41b2-9312-f5d399b28b08}, !- Handle
  0400|2200|Hospital|default|htg_setpoint |default, !- Name
  {a5292f24-3426-4441-af1d-a34b6bd6f70c}, !- Schedule Type Limits Name
  ,                                       !- Interpolate to Timestep
  5,                                      !- Hour 1
  0,                                      !- Minute 1
  18.3,                                   !- Value Until Time 1
  18,                                     !- Hour 2
  0,                                      !- Minute 2
  21.1,                                   !- Value Until Time 2
  24,                                     !- Hour 3
  0,                                      !- Minute 3
  18.3;                                   !- Value Until Time 3

OS:Schedule:Day,
  {f356705b-b68e-4b71-b945-4d0cf9c7822d}, !- Handle
  0400|2200|Hospital|default|htg_setpoint Summer Design Day, !- Name
  {a5292f24-3426-4441-af1d-a34b6bd6f70c}, !- Schedule Type Limits Name
  ,                                       !- Interpolate to Timestep
  5,                                      !- Hour 1
  0,                                      !- Minute 1
  18.3,                                   !- Value Until Time 1
  18,                                     !- Hour 2
  0,                                      !- Minute 2
  21.1,                                   !- Value Until Time 2
  24,                                     !- Hour 3
  0,                                      !- Minute 3
  18.3;                                   !- Value Until Time 3

OS:Schedule:Day,
  {09ac31c1-584a-409a-9f42-1779523bd916}, !- Handle
  0400|2200|Hospital|default|htg_setpoint Winter Design Day, !- Name
  {a5292f24-3426-4441-af1d-a34b6bd6f70c}, !- Schedule Type Limits Name
  ,                                       !- Interpolate to Timestep
  24,                                     !- Hour 1
  0,                                      !- Minute 1
  18.3;                                   !- Value Until Time 1

OS:Schedule:Rule,
  {45da0993-3748-4c67-bf9c-17a136e1145d}, !- Handle
  0400|2200|Hospital|default|htg_setpoint |1/1-12/31|Sat/Sun Rule, !- Name
  {90f09f63-f662-4060-a150-5bfcad1db44e}, !- Schedule Ruleset Name
  0,                                      !- Rule Order
  {6da0d78b-a8c8-440c-89c5-8cf141021c37}, !- Day Schedule Name
  Yes,                                    !- Apply Sunday
  ,                                       !- Apply Monday
  ,                                       !- Apply Tuesday
  ,                                       !- Apply Wednesday
  ,                                       !- Apply Thursday
  ,                                       !- Apply Friday
  Yes,                                    !- Apply Saturday
  ,                                       !- Apply Holiday
  DateRange,                              !- Date Specification Type
  1,                                      !- Start Month
  1,                                      !- Start Day
  12,                                     !- End Month
  31;                                     !- End Day

OS:Schedule:Day,
  {6da0d78b-a8c8-440c-89c5-8cf141021c37}, !- Handle
  0400|2200|Hospital|default|htg_setpoint |1/1-12/31|Sat/Sun, !- Name
  {a5292f24-3426-4441-af1d-a34b6bd6f70c}, !- Schedule Type Limits Name
  ,                                       !- Interpolate to Timestep
  24,                                     !- Hour 1
  0,                                      !- Minute 1
  18.3;                                   !- Value Until Time 1

OS:Schedule:Ruleset,
  {57b2e54a-ffd8-4af7-99f1-4505fc363c2e}, !- Handle
  0400|2200|Hospital|default|ext_lighting, !- Name
  {3d6c41eb-92f2-401b-b9eb-2f728def62a6}, !- Schedule Type Limits Name
  {737dd4dd-6072-4e13-bba4-547f9eda287e}, !- Default Day Schedule Name
  {6075e1a8-c859-4009-b747-0ff54f3ad51c}, !- Summer Design Day Schedule Name
  {b6f5b5be-dd4d-45c9-91c0-ec195d41c19d}; !- Winter Design Day Schedule Name

OS:Schedule:Day,
  {737dd4dd-6072-4e13-bba4-547f9eda287e}, !- Handle
  0400|2200|Hospital|default|ext_lighting |default, !- Name
  {3d6c41eb-92f2-401b-b9eb-2f728def62a6}, !- Schedule Type Limits Name
  ,                                       !- Interpolate to Timestep
  24,                                     !- Hour 1
  0,                                      !- Minute 1
  1;                                      !- Value Until Time 1

OS:Schedule:Day,
  {6075e1a8-c859-4009-b747-0ff54f3ad51c}, !- Handle
  0400|2200|Hospital|default|ext_lighting Summer Design Day, !- Name
  {3d6c41eb-92f2-401b-b9eb-2f728def62a6}, !- Schedule Type Limits Name
  ,                                       !- Interpolate to Timestep
  24,                                     !- Hour 1
  0,                                      !- Minute 1
  1;                                      !- Value Until Time 1

OS:Schedule:Day,
  {b6f5b5be-dd4d-45c9-91c0-ec195d41c19d}, !- Handle
  0400|2200|Hospital|default|ext_lighting Winter Design Day, !- Name
  {3d6c41eb-92f2-401b-b9eb-2f728def62a6}, !- Schedule Type Limits Name
  ,                                       !- Interpolate to Timestep
  24,                                     !- Hour 1
  0,                                      !- Minute 1
  1;                                      !- Value Until Time 1

OS:Schedule:Ruleset,
  {6bf4c509-1155-4ab6-b87a-c62503d35b46}, !- Handle
  0400|2200|Hospital|ER_Trauma|lighting,  !- Name