
OS:Version,
  {5ae5c220-36b5-4750-a8c9-9c9e63a0298e}, !- Handle
  1.5.5;                                  !- Version Identifier

OS:ClimateZones,
  {135edfab-17e7-40db-a436-27d385a8cd6d}, !- Handle
  ,                                       !- Active Institution
  ,                                       !- Active Year
  ASHRAE,                                 !- Climate Zone Institution Name 1
  ANSI/ASHRAE Standard 169,               !- Climate Zone Document Name 1
  2006,                                   !- Climate Zone Document Year 1
  ,                                       !- Climate Zone Value 1
  CEC,                                    !- Climate Zone Institution Name 2
  California Climate Zone Descriptions,   !- Climate Zone Document Name 2
  1995,                                   !- Climate Zone Document Year 2
  ;                                       !- Climate Zone Value 2

OS:YearDescription,
  {513d8dda-86cb-442a-b01c-1f7f0e0ac70e}; !- Handle

OS:RadianceParameters,
  {270a96f1-3c86-4b75-a667-cdf22790e2c8}, !- Handle
  1,                                      !- Accumulated Rays per Record
  0,                                      !- Direct Threshold
  1,                                      !- Direct Certainty
  1,                                      !- Direct Jitter
  1,                                      !- Direct Pretest
  6,                                      !- Ambient Bounces VMX
  2,                                      !- Ambient Bounces DMX
  4050,                                   !- Ambient Divisions VMX
  512,                                    !- Ambient Divisions DMX
  256,                                    !- Ambient Supersamples
  0.001,                                  !- Limit Weight VMX
  0.001,                                  !- Limit Weight DMX
  500,                                    !- Klems Sampling Density
  146;                                    !- Sky Discretization Resolution

OS:SimulationControl,
  {2c487a4c-bac9-4ac5-b669-1e49d9da7c2b}, !- Handle
  ,                                       !- Do Zone Sizing Calculation
  ,                                       !- Do System Sizing Calculation
  ,                                       !- Do Plant Sizing Calculation
  No,                                     !- Run Simulation for Sizing Periods
  ,                                       !- Run Simulation for Weather File Run Periods
  0.04,                                   !- Loads Convergence Tolerance Value
  ,                                       !- Temperature Convergence Tolerance Value {deltaC}
  ,                                       !- Solar Distribution
  ,                                       !- Maximum Number of Warmup Days
  2;                                      !- Minimum Number of Warmup Days

OS:Sizing:Parameters,
  {dde5af6f-7923-4600-a28a-7556673a0266}, !- Handle
  1.25,                                   !- Heating Sizing Factor
  1.15;                                   !- Cooling Sizing Factor

OS:ProgramControl,
  {05027a99-f2b3-4aeb-afc6-1425fbb4371d}; !- Handle

OS:Timestep,
  {4ebc9f1e-4707-402e-9844-67eb1ffbd522}, !- Handle
  2;                                      !- Number of Timesteps per Hour

OS:OutputControl:ReportingTolerances,
  {65797aa2-06a9-45fe-b69d-bc6e060399d3}; !- Handle

OS:ConvergenceLimits,
  {9fc11aba-8822-4f3d-970c-46391ba4040d}; !- Handle

OS:ShadowCalculation,
  {ca758bea-4416-4626-9bba-3d8795c79bd6}, !- Handle
  7,                                      !- Calculation Frequency
  15000;                                  !- Maximum Figures in Shadow Overlap Calculations

OS:SurfaceConvectionAlgorithm:Inside,
  {aaabfc36-718a-4ab0-b622-f186ebb45230}, !- Handle
  TARP;                                   !- Algorithm

OS:SurfaceConvectionAlgorithm:Outside,
  {9a0a9f6f-4bbd-4b12-a121-9492a1fcd7d6}, !- Handle
  DOE-2;                                  !- Algorithm

OS:HeatBalanceAlgorithm,
  {9d93e563-e1e0-46d7-9e39-d1c8aceb7212}, !- Handle
  ConductionTransferFunction,             !- Algorithm
  200;                                    !- Surface Temperature Upper Limit {F}

OS:ZoneAirHeatBalanceAlgorithm,
  {8520d93e-310f-4696-9bcd-36228bfdd743}, !- Handle
  AnalyticalSolution;                     !- Algorithm

OS:ZoneAirContaminantBalance,
  {eb5fc3ae-fb22-4160-8fcb-3e3b22b000d3}; !- Handle

OS:ZoneCapacitanceMultiplier:ResearchSpecial,
  {4020ce4f-5a7a-4849-8028-8305d7b751b1}, !- Handle
  ,                                       !- Temperature Capacity Multiplier
  ,                                       !- Humidity Capacity Multiplier
  ;                                       !- Carbon Dioxide Capacity Multiplier

OS:RunPeriod,
  {28df894d-6af9-4fb8-8f56-df1753344aa3}, !- Handle
  Run Period 1,                           !- Name
  1,                                      !- Begin Month
  1,                                      !- Begin Day of Month
  12,                                     !- End Month
  31,                                     !- End Day of Month
  ,                                       !- Use Weather File Holidays and Special Days
  ,                                       !- Use Weather File Daylight Saving Period
  ,                                       !- Apply Weekend Holiday Rule
  ,                                       !- Use Weather File Rain Indicators
  ,                                       !- Use Weather File Snow Indicators
  ;                                       !- Number of Times Runperiod to be Repeated

OS:Building,
  {bf305633-c5a1-4881-9edf-ca5e1a8e1274}, !- Handle
  Building 1,                             !- Name
  ,                                       !- Building Sector Type
  ,                                       !- North Axis {deg}
  ,                                       !- Nominal Floor to Floor Height {m}
  ,                                       !- Space Type Name
  ,                                       !- Default Construction Set Name
  {4165fa93-6ad1-4911-8e95-a1a1b96be1bc}, !- Default Schedule Set Name
  ,                                       !- Standards Number of Stories
  ,                                       !- Standards Number of Above Ground Stories
  Laboratory;                             !- Standards Building Type

OS:LifeCycleCost:Parameters,
  {231cf8a0-f0e7-4251-a99f-11f0d464e661}, !- Handle
  FEMP,                                   !- Analysis Type
  ,                                       !- Discounting Convention
  ,                                       !- Inflation Approach
  ,                                       !- Real Discount Rate
  ,                                       !- Nominal Discount Rate
  ,                                       !- Inflation
  ,                                       !- Base Date Month
  ,                                       !- Base Date Year
  ,                                       !- Service Date Month
  ,                                       !- Service Date Year
  ,                                       !- Length of Study Period in Years
  ,                                       !- Tax Rate
  ,                                       !- Depreciation Method
  Yes;                                    !- Use NIST Fuel Escalation Rates

OS:Facility,
  {3ba8e45b-b833-44eb-a723-ea6c3946dc96}; !- Handle

OS:SpaceType,
  {b33f37ea-8b33-4c4a-8799-d5a873853b91}, !- Handle
  Laboratory|BlendOff|DOE Ref 1980-2004|ASHRAE 169-2006-5A, !- Name
  {987d2bd1-5d98-45cf-98c3-42fb21cd40a6}, !- Default Construction Set Name
  ,                                       !- Default Schedule Set Name
  {219dde26-9f74-468d-91c9-81ee9a93e5da}, !- Group Rendering Name
  {0e678dc3-7573-40e6-876d-11439fe800a0}, !- Design Specification Outdoor Air Object Name
  Laboratory,                             !- Standards Building Type
  BlendOff;                               !- Standards Space Type

OS:Rendering:Color,
  {219dde26-9f74-468d-91c9-81ee9a93e5da}, !- Handle
  Rendering Color 1,                      !- Name
  120,                                    !- Rendering Red Value
  230,                                    !- Rendering Green Value
  199;                                    !- Rendering Blue Value

OS:SpaceType,
  {8521370b-1c4b-4004-ba0f-e0f31b650f94}, !- Handle
  Laboratory|Lab|DOE Ref 1980-2004|ASHRAE 169-2006-5A, !- Name
  {987d2bd1-5d98-45cf-98c3-42fb21cd40a6}, !- Default Construction Set Name
  {1c5ba23e-a1e9-4439-ade4-92cd5d25b9de}, !- Default Schedule Set Name
  {78fe405c-a0c1-4481-a7a9-5a021c9ceb1f}, !- Group Rendering Name
  {e15a4177-b641-4034-9e9e-8a3b5f594af8}, !- Design Specification Outdoor Air Object Name
  Laboratory,                             !- Standards Building Type
  Lab;                                    !- Standards Space Type

OS:Rendering:Color,
  {78fe405c-a0c1-4481-a7a9-5a021c9ceb1f}, !- Handle
  Rendering Color 2,                      !- Name
  204,                                    !- Rendering Red Value
  120,                                    !- Rendering Green Value
  230;                                    !- Rendering Blue Value

OS:SpaceType,
  {6915c9de-d5e5-4e34-939a-cc29f81a0901}, !- Handle
  Laboratory|BlendCirc|DOE Ref 1980-2004|ASHRAE 169-2006-5A, !- Name
  {987d2bd1-5d98-45cf-98c3-42fb21cd40a6}, !- Default Construction Set Name
  ,                                       !- Default Schedule Set Name
  {de1e74e2-3b8c-461a-afa3-d7b349b1f764}, !- Group Rendering Name
  {5dc3e8ac-769e-4274-8cb4-dbe5ffd786c2}, !- Design Specification Outdoor Air Object Name
  Laboratory,                             !- Standards Building Type
  BlendCirc;                              !- Standards Space Type

OS:Rendering:Color,
  {de1e74e2-3b8c-461a-afa3-d7b349b1f764}, !- Handle
  Rendering Color 3,                      !- Name
  120,                                    !- Rendering Red Value
  149,                                    !- Rendering Green Value
  230;                                    !- Rendering Blue Value

OS:SpaceType,
  {b30699e0-d372-4040-97d6-97ae1f69e5d9}, !- Handle
  Laboratory|BlendMisc|DOE Ref 1980-2004|ASHRAE 169-2006-5A, !- Name
  {987d2bd1-5d98-45cf-98c3-42fb21cd40a6}, !- Default Construction Set Name
  ,                                       !- Default Schedule Set Name
  {aa3e4c3a-36e7-433d-80c2-6e8764a8ca88}, !- Group Rendering Name
  {d337b55d-d8f1-489f-858d-c3506bce409f}, !- Design Specification Outdoor Air Object Name
  Laboratory,                             !- Standards Building Type
  BlendMisc;                              !- Standards Space Type

OS:Rendering:Color,
  {aa3e4c3a-36e7-433d-80c2-6e8764a8ca88}, !- Handle
  Rendering Color 4,                      !- Name
  41,                                     !- Rendering Red Value
  31,                                     !- Rendering Green Value
  169;                                    !- Rendering Blue Value

OS:SpaceType,
  {ec705140-6711-4ecd-86c2-48c758a8d0ae}, !- Handle
  Laboratory|Restroom|DOE Ref 1980-2004|ASHRAE 169-2006-5A, !- Name
  {987d2bd1-5d98-45cf-98c3-42fb21cd40a6}, !- Default Construction Set Name
  {8fa74d43-47cc-4074-a878-38097d24e8c4}, !- Default Schedule Set Name
  {193cdc87-c819-4ed6-9860-2d4dbafbe9ca}, !- Group Rendering Name
  {6d180964-269f-49ca-b2d1-642370013c3d}, !- Design Specification Outdoor Air Object Name
  Laboratory,                             !- Standards Building Type
  Restroom;                               !- Standards Space Type

OS:Rendering:Color,
  {193cdc87-c819-4ed6-9860-2d4dbafbe9ca}, !- Handle
  Rendering Color 5,                      !- Name
  169,                                    !- Rendering Red Value
  169,                                    !- Rendering Green Value
  31;                                     !- Rendering Blue Value

OS:Schedule:Ruleset,
  {d5d4ada8-f29d-4545-99e3-02c35a7b3021}, !- Handle
  0800|1700|Laboratory|default|hoo,       !- Name
  {825bf9b4-d33b-4e4e-a2b9-385d3ca2d00f}, !- Schedule Type Limits Name
  {804c4b32-5694-424d-ae0d-c1f00598cdf2}, !- Default Day Schedule Name
  {c727b840-2e96-46e5-a098-6ba4d7092936}, !- Summer Design Day Schedule Name
  {d7bcc030-a35d-4c54-bbc9-ac68f9c98ad0}; !- Winter Design Day Schedule Name

OS:Schedule:Day,
  {804c4b32-5694-424d-ae0d-c1f00598cdf2}, !- Handle
  0800|1700|Laboratory|default|hoo Schedule Week Day, !- Name
  {825bf9b4-d33b-4e4e-a2b9-385d3ca2d00f}, !- Schedule Type Limits Name
  ,                                       !- Interpolate to Timestep
  8,                                      !- Hour 1
  0,                                      !- Minute 1
  0,                                      !- Value Until Time 1
  17,                                     !- Hour 2
  0,                                      !- Minute 2
  1,                                      !- Value Until Time 2
  24,                                     !- Hour 3
  0,                                      !- Minute 3
  0;                                      !- Value Until Time 3

OS:Schedule:Day,
  {046e6678-df42-4ef4-8693-b7731ac25983}, !- Handle
  Schedule Day 2,                         !- Name
  ,                                       !- Schedule Type Limits Name
  ,                                       !- Interpolate to Timestep
  24,                                     !- Hour 1
  0,                                      !- Minute 1
  0;                                      !- Value Until Time 1

OS:Schedule:Day,
  {d7bcc030-a35d-4c54-bbc9-ac68f9c98ad0}, !- Handle
  0800|1700|Laboratory|default|hoo Winter Design Day, !- Name
  {825bf9b4-d33b-4e4e-a2b9-385d3ca2d00f}, !- Schedule Type Limits Name
  ,                                       !- Interpolate to Timestep
  24,                                     !- Hour 1
  0,                                      !- Minute 1
  0;                                      !- Value Until Time 1

OS:Schedule:Day,
  {d68339bf-bfa5-40c4-98b0-93ce596de34a}, !- Handle
  Schedule Day 3,                         !- Name
  ,                                       !- Schedule Type Limits Name
  ,                                       !- Interpolate to Timestep
  24,                                     !- Hour 1
  0,                                      !- Minute 1
  0;                                      !- Value Until Time 1

OS:Schedule:Day,
  {c727b840-2e96-46e5-a098-6ba4d7092936}, !- Handle
  0800|1700|Laboratory|default|hoo Summer Design Day, !- Name
  {825bf9b4-d33b-4e4e-a2b9-385d3ca2d00f}, !- Schedule Type Limits Name
  ,                                       !- Interpolate to Timestep
  24,                                     !- Hour 1
  0,                                      !- Minute 1
  1;                                      !- Value Until Time 1

OS:DefaultScheduleSet,
  {4165fa93-6ad1-4911-8e95-a1a1b96be1bc}, !- Handle
  Building Hours of Operation,            !- Name
  {d5d4ada8-f29d-4545-99e3-02c35a7b3021}, !- Hours of Operation Schedule Name
  ,                                       !- Number of People Schedule Name
  ,                                       !- People Activity Level Schedule Name
  ,                                       !- Lighting Schedule Name
  ,                                       !- Electric Equipment Schedule Name
  ,                                       !- Gas Equipment Schedule Name
  ,                                       !- Hot Water Equipment Schedule Name
  ,                                       !- Infiltration Schedule Name
  ,                                       !- Steam Equipment Schedule Name
  ;                                       !- Other Equipment Schedule Name

OS:ScheduleTypeLimits,
  {825bf9b4-d33b-4e4e-a2b9-385d3ca2d00f}, !- Handle
  OnOff,                                  !- Name
  0,                                      !- Lower Limit Value {BasedOnField A4}
  1,                                      !- Upper Limit Value {BasedOnField A4}
  Discrete,                               !- Numeric Type
  Availability;                           !- Unit Type

OS:Schedule:Ruleset,
  {941d0296-0aaa-4c58-9162-8c44aaaf7f0f}, !- Handle
  0800|1700|Laboratory|default|work_eff,  !- Name
  {f5b07372-f21d-45e5-8ad3-bc670f26307f}, !- Schedule Type Limits Name
  {68e5df0f-d3d1-4f1a-94a6-1204113a2c43}, !- Default Day Schedule Name
  {a8995473-57eb-45a7-acbe-956f75c91cb5}, !- Summer Design Day Schedule Name
  {6b325227-ac75-49ae-ab2c-38862ae1df65}; !- Winter Design Day Schedule Name

OS:ScheduleTypeLimits,
  {f5b07372-f21d-45e5-8ad3-bc670f26307f}, !- Handle
  Fraction Schedule Type Limits,          !- Name
  0,                                      !- Lower Limit Value {BasedOnField A4}
  1,                                      !- Upper Limit Value {BasedOnField A4}
  Continuous,                             !- Numeric Type
  Dimensionless;                          !- Unit Type

OS:Schedule:Day,
  {68e5df0f-d3d1-4f1a-94a6-1204113a2c43}, !- Handle
  0800|1700|Laboratory|default|work_eff |default, !- Name
  {f5b07372-f21d-45e5-8ad3-bc670f26307f}, !- Schedule Type Limits Name
  ,                                       !- Interpolate to Timestep
  24,                                     !- Hour 1
  0,                                      !- Minute 1
  0;                                      !- Value Until Time 1

OS:Schedule:Day,
  {a8995473-57eb-45a7-acbe-956f75c91cb5}, !- Handle
  0800|1700|Laboratory|default|work_eff Summer Design Day, !- Name
  {f5b07372-f21d-45e5-8ad3-bc670f26307f}, !- Schedule Type Limits Name
  ,                                       !- Interpolate to Timestep
  24,                                     !- Hour 1
  0,                                      !- Minute 1
  0;                                      !- Value Until Time 1

OS:Schedule:Day,
  {6b325227-ac75-49ae-ab2c-38862ae1df65}, !- Handle
  0800|1700|Laboratory|default|work_eff Winter Design Day, !- Name
  {f5b07372-f21d-45e5-8ad3-bc670f26307f}, !- Schedule Type Limits Name
  ,                                       !- Interpolate to Timestep
  24,                                     !- Hour 1
  0,                                      !- Minute 1
  0;                                      !- Value Until Time 1

OS:Schedule:Ruleset,
  {e8631a03-abb3-4e2f-ba85-01f31458d8d7}, !- Handle
  0800|1700|Laboratory|default|swh_target_temp, !- Name
  {f1bdf672-3307-4789-b7ab-a0c395446921}, !- Schedule Type Limits Name
  {53ef0d98-3164-4b09-9d2c-ed836fe69e8e}, !- Default Day Schedule Name
  {a5742a04-2e5f-44e9-9ef3-7290521d9d1e}, !- Summer Design Day Schedule Name
  {a35f4248-4897-4abe-b2b9-e110c634c8a3}; !- Winter Design Day Schedule Name

OS:ScheduleTypeLimits,
  {f1bdf672-3307-4789-b7ab-a0c395446921}, !- Handle
  Temperature Schedule Type Limits,       !- Name
  ,                                       !- Lower Limit Value {BasedOnField A4}
  ,                                       !- Upper Limit Value {BasedOnField A4}
  Continuous,                             !- Numeric Type
  Temperature;                            !- Unit Type

OS:Schedule:Day,
  {53ef0d98-3164-4b09-9d2c-ed836fe69e8e}, !- Handle
  0800|1700|Laboratory|default|swh_target_temp |default, !- Name
  {f1bdf672-3307-4789-b7ab-a0c395446921}, !- Schedule Type Limits Name
  ,                                       !- Interpolate to Timestep
  24,                                     !- Hour 1
  0,                                      !- Minute 1
  71.1111111111111;                       !- Value Until Time 1

OS:Schedule:Day,
  {a5742a04-2e5f-44e9-9ef3-7290521d9d1e}, !- Handle
  0800|1700|Laboratory|default|swh_target_temp Summer Design Day, !- Name
  {f1bdf672-3307-4789-b7ab-a0c395446921}, !- Schedule Type Limits Name
  ,                                       !- Interpolate to Timestep
  24,                                     !- Hour 1
  0,                                      !- Minute 1
  71.1111111111111;                       !- Value Until Time 1

OS:Schedule:Day,
  {a35f4248-4897-4abe-b2b9-e110c634c8a3}, !- Handle
  0800|1700|Laboratory|default|swh_target_temp Winter Design Day, !- Name
  {f1bdf672-3307-4789-b7ab-a0c395446921}, !- Schedule Type Limits Name
  ,                                       !- Interpolate to Timestep
  24,                                     !- Hour 1
  0,                                      !- Minute 1
  71.1111111111111;                       !- Value Until Time 1

OS:Schedule:Ruleset,
  {36f81656-fc4c-4e10-afbb-3cb22b17b627}, !- Handle
  0800|1700|Laboratory|default|infiltration, !- Name
  {f5b07372-f21d-45e5-8ad3-bc670f26307f}, !- Schedule Type Limits Name
  {91001f0c-6038-44ca-b633-4f720cf8621d}, !- Default Day Schedule Name
  {36f00417-e386-4bb3-96b7-37969bc681e1}, !- Summer Design Day Schedule Name
  {d50e585f-96df-4061-a368-9700afbc1218}; !- Winter Design Day Schedule Name

OS:Schedule:Day,
  {91001f0c-6038-44ca-b633-4f720cf8621d}, !- Handle
  0800|1700|Laboratory|default|infiltration |default, !- Name
  {f5b07372-f21d-45e5-8ad3-bc670f26307f}, !- Schedule Type Limits Name
  ,                                       !- Interpolate to Timestep
  6,                                      !- Hour 1
  0,                                      !- Minute 1
  0.25,                                   !- Value Until Time 1
  22,                                     !- Hour 2
  0,                                      !- Minute 2
  1,                                      !- Value Until Time 2
  24,                                     !- Hour 3
  0,                                      !- Minute 3
  0.25;                                   !- Value Until Time 3

OS:Schedule:Day,
  {36f00417-e386-4bb3-96b7-37969bc681e1}, !- Handle
  0800|1700|Laboratory|default|infiltration Summer Design Day, !- Name
  {f5b07372-f21d-45e5-8ad3-bc670f26307f}, !- Schedule Type Limits Name
  ,                                       !- Interpolate to Timestep
  6,                                      !- Hour 1
  0,                                      !- Minute 1
  0.25,                                   !- Value Until Time 1
  22,                                     !- Hour 2
  0,                                      !- Minute 2
  1,                                      !- Value Until Time 2
  24,                                     !- Hour 3
  0,                                      !- Minute 3
  0.25;                                   !- Value Until Time 3

OS:Schedule:Day,
  {d50e585f-96df-4061-a368-9700afbc1218}, !- Handle
  0800|1700|Laboratory|default|infiltration Winter Design Day, !- Name
  {f5b07372-f21d-45e5-8ad3-bc670f26307f}, !- Schedule Type Limits Name
  ,                                       !- Interpolate to Timestep
  6,                                      !- Hour 1
  0,                                      !- Minute 1
  0.25,                                   !- Value Until Time 1
  22,                                     !- Hour 2
  0,                                      !- Minute 2
  1,                                      !- Value Until Time 2
  24,                                     !- Hour 3
  0,                                      !- Minute 3
  0.25;                                   !- Value Until Time 3

OS:Schedule:Rule,
  {6436cad8-fe32-413b-8e3c-7203ccdcd1d3}, !- Handle
  0800|1700|Laboratory|default|infiltration |1/1-12/31|Sun Rule, !- Name
  {36f81656-fc4c-4e10-afbb-3cb22b17b627}, !- Schedule Ruleset Name
  0,                                      !- Rule Order
  {0bd1efb8-b542-4033-866d-88e4fd844bb0}, !- Day Schedule Name
  Yes,                                    !- Apply Sunday
  ,                                       !- Apply Monday
  ,                                       !- Apply Tuesday
  ,                                       !- Apply Wednesday
  ,                                       !- Apply Thursday
  ,                                       !- Apply Friday
  ,                                       !- Apply Saturday
  ,                                       !- Apply Holiday
  DateRange,                              !- Date Specification Type
  1,                                      !- Start Month
  1,                                      !- Start Day
  12,                                     !- End Month
  31;                                     !- End Day

OS:Schedule:Day,
  {0bd1efb8-b542-4033-866d-88e4fd844bb0}, !- Handle
  0800|1700|Laboratory|default|infiltration |1/1-12/31|Sun, !- Name
  {f5b07372-f21d-45e5-8ad3-bc670f26307f}, !- Schedule Type Limits Name
  ,                                       !- Interpolate to Timestep
  24,                                     !- Hour 1
  0,                                      !- Minute 1
  1;                                      !- Value Until Time 1

OS:Schedule:Rule,
  {a612784a-c997-40a5-beba-8a184d681a1c}, !- Handle
  0800|1700|Laboratory|default|infiltration |1/1-12/31|Sat Rule, !- Name
  {36f81656-fc4c-4e10-afbb-3cb22b17b627}, !- Schedule Ruleset Name
  1,                                      !- Rule Order
  {70aaf44c-3e76-4e46-8604-fc3ea44388dd}, !- Day Schedule Name
  ,                                       !- Apply Sunday
  ,                                       !- Apply Monday
  ,                                       !- Apply Tuesday
  ,                                       !- Apply Wednesday
  ,                                       !- Apply Thursday
  ,                                       !- Apply Friday
  Yes,                                    !- Apply Saturday
  ,                                       !- Apply Holiday
  DateRange,                              !- Date Specification Type
  1,                                      !- Start Month
  1,                                      !- Start Day
  12,                                     !- End Month
  31;                                     !- End Day

OS:Schedule:Day,
  {70aaf44c-3e76-4e46-8604-fc3ea44388dd}, !- Handle
  0800|1700|Laboratory|default|infiltration |1/1-12/31|Sat, !- Name
  {f5b07372-f21d-45e5-8ad3-bc670f26307f}, !- Schedule Type Limits Name
  ,                                       !- Interpolate to Timestep
  6,                                      !- Hour 1
  0,                                      !- Minute 1
  0.25,                                   !- Value Until Time 1
  18,                                     !- Hour 2
  0,                                      !- Minute 2
  1,                                      !- Value Until Time 2
  24,                                     !- Hour 3
  0,                                      !- Minute 3
  0.25;                                   !- Value Until Time 3

OS:Schedule:Ruleset,
  {403c7d24-afad-4064-b282-709f27472b07}, !- Handle
  0800|1700|Laboratory|default|clg_setpoint, !- Name
  {f1938227-6173-41f2-b46e-c262721b6fc7}, !- Schedule Type Limits Name
  {dbcf9294-5735-44e6-b09d-12c5358a6e88}, !- Default Day Schedule Name
  {916c5ee1-0b1d-4ccf-8610-1d28c6410d0d}, !- Summer Design Day Schedule Name
  {066d41cc-4ccd-4a5a-b4e0-e0f32fcf825f}; !- Winter Design Day Schedule Name

OS:ScheduleTypeLimits,
  {f1938227-6173-41f2-b46e-c262721b6fc7}, !- Handle
  Thermostat Cooling Setpoint Schedule Type Limits, !- Name
  0,                                      !- Lower Limit Value {BasedOnField A4}
  100,                                    !- Upper Limit Value {BasedOnField A4}
  Continuous,                             !- Numeric Type
  Temperature;                            !- Unit Type

OS:Schedule:Day,
  {dbcf9294-5735-44e6-b09d-12c5358a6e88}, !- Handle
  0800|1700|Laboratory|default|clg_setpoint |default, !- Name
  {f1938227-6173-41f2-b46e-c262721b6fc7}, !- Schedule Type Limits Name
  ,                                       !- Interpolate to Timestep
  6,                                      !- Hour 1
  0,                                      !- Minute 1
  26.7222222222223,                       !- Value Until Time 1
  22,                                     !- Hour 2
  0,                                      !- Minute 2
  24.0000000000001,                       !- Value Until Time 2
  24,                                     !- Hour 3
  0,                                      !- Minute 3
  26.7222222222223;                       !- Value Until Time 3

OS:Schedule:Day,
  {916c5ee1-0b1d-4ccf-8610-1d28c6410d0d}, !- Handle
  0800|1700|Laboratory|default|clg_setpoint Summer Design Day, !- Name
  {f1938227-6173-41f2-b46e-c262721b6fc7}, !- Schedule Type Limits Name
  ,                                       !- Interpolate to Timestep
  24,                                     !- Hour 1
  0,                                      !- Minute 1
  26.7222222222223;                       !- Value Until Time 1

OS:Schedule:Day,
  {066d41cc-4ccd-4a5a-b4e0-e0f32fcf825f}, !- Handle
  0800|1700|Laboratory|default|clg_setpoint Winter Design Day, !- Name
  {f1938227-6173-41f2-b46e-c262721b6fc7}, !- Schedule Type Limits Name
  ,                                       !- Interpolate to Timestep
  6,                                      !- Hour 1
  0,                                      !- Minute 1
  26.7222222222223,                       !- Value Until Time 1
  22,                                     !- Hour 2
  0,                                      !- Minute 2
  24.0000000000001,                       !- Value Until Time 2
  24,                                     !- Hour 3
  0,                                      !- Minute 3
  26.7222222222223;                       !- Value Until Time 3

OS:Schedule:Rule,
  {56a6acf7-cdaa-4587-83cf-74a82e224479}, !- Handle
  0800|1700|Laboratory|default|clg_setpoint |1/1-12/31|Sun Rule, !- Name
  {403c7d24-afad-4064-b282-709f27472b07}, !- Schedule Ruleset Name
  0,                                      !- Rule Order
  {d7036b49-dc04-4ac2-8349-1e94663d0eda}, !- Day Schedule Name
  Yes,                                    !- Apply Sunday
  ,                                       !- Apply Monday
  ,                                       !- Apply Tuesday
  ,                                       !- Apply Wednesday