
OS:Version,
  {8a4eecc6-38df-4862-98f0-01ac6c89d87e}, !- Handle
  1.5.5;                                  !- Version Identifier

OS:ClimateZones,
  {135edfab-17e7-40db-a436-27d385a8cd6d}, !- Handle
  ,                                       !- Active Institution
  ,                                       !- Active Year
  ASHRAE,                                 !- Climate Zone Institution Name 1
  ANSI/ASHRAE Standard 169,               !- Climate Zone Document Name 1
  2006,                                   !- Climate Zone Document Year 1
  ,                                       !- Climate Zone Value 1
  CEC,                                    !- Climate Zone Institution Name 2
  California Climate Zone Descriptions,   !- Climate Zone Document Name 2
  1995,                                   !- Climate Zone Document Year 2
  ;                                       !- Climate Zone Value 2

OS:YearDescription,
  {513d8dda-86cb-442a-b01c-1f7f0e0ac70e}; !- Handle

OS:RadianceParameters,
  {270a96f1-3c86-4b75-a667-cdf22790e2c8}, !- Handle
  1,                                      !- Accumulated Rays per Record
  0,                                      !- Direct Threshold
  1,                                      !- Direct Certainty
  1,                                      !- Direct Jitter
  1,                                      !- Direct Pretest
  6,                                      !- Ambient Bounces VMX
  2,                                      !- Ambient Bounces DMX
  4050,                                   !- Ambient Divisions VMX
  512,                                    !- Ambient Divisions DMX
  256,                                    !- Ambient Supersamples
  0.001,                                  !- Limit Weight VMX
  0.001,                                  !- Limit Weight DMX
  500,                                    !- Klems Sampling Density
  146;                                    !- Sky Discretization Resolution

OS:SimulationControl,
  {2c487a4c-bac9-4ac5-b669-1e49d9da7c2b}, !- Handle
  ,                                       !- Do Zone Sizing Calculation
  ,                                       !- Do System Sizing Calculation
  ,                                       !- Do Plant Sizing Calculation
  No,                                     !- Run Simulation for Sizing Periods
  ,                                       !- Run Simulation for Weather File Run Periods
  0.04,                                   !- Loads Convergence Tolerance Value
  ,                                       !- Temperature Convergence Tolerance Value {deltaC}
  ,                                       !- Solar Distribution
  ,                                       !- Maximum Number of Warmup Days
  2;                                      !- Minimum Number of Warmup Days

OS:Sizing:Parameters,
  {dde5af6f-7923-4600-a28a-7556673a0266}, !- Handle
  1.25,                                   !- Heating Sizing Factor
  1.15;                                   !- Cooling Sizing Factor

OS:ProgramControl,
  {05027a99-f2b3-4aeb-afc6-1425fbb4371d}; !- Handle

OS:Timestep,
  {4ebc9f1e-4707-402e-9844-67eb1ffbd522}, !- Handle
  2;                                      !- Number of Timesteps per Hour

OS:OutputControl:ReportingTolerances,
  {65797aa2-06a9-45fe-b69d-bc6e060399d3}; !- Handle

OS:ConvergenceLimits,
  {9fc11aba-8822-4f3d-970c-46391ba4040d}; !- Handle

OS:ShadowCalculation,
  {ca758bea-4416-4626-9bba-3d8795c79bd6}, !- Handle
  7,                                      !- Calculation Frequency
  15000;                                  !- Maximum Figures in Shadow Overlap Calculations

OS:SurfaceConvectionAlgorithm:Inside,
  {aaabfc36-718a-4ab0-b622-f186ebb45230}, !- Handle
  TARP;                                   !- Algorithm

OS:SurfaceConvectionAlgorithm:Outside,
  {9a0a9f6f-4bbd-4b12-a121-9492a1fcd7d6}, !- Handle
  DOE-2;                                  !- Algorithm

OS:HeatBalanceAlgorithm,
  {9d93e563-e1e0-46d7-9e39-d1c8aceb7212}, !- Handle
  ConductionTransferFunction,             !- Algorithm
  200;                                    !- Surface Temperature Upper Limit {F}

OS:ZoneAirHeatBalanceAlgorithm,
  {8520d93e-310f-4696-9bcd-36228bfdd743}, !- Handle
  AnalyticalSolution;                     !- Algorithm

OS:ZoneAirContaminantBalance,
  {eb5fc3ae-fb22-4160-8fcb-3e3b22b000d3}; !- Handle

OS:ZoneCapacitanceMultiplier:ResearchSpecial,
  {4020ce4f-5a7a-4849-8028-8305d7b751b1}, !- Handle
  ,                                       !- Temperature Capacity Multiplier
  ,                                       !- Humidity Capacity Multiplier
  ;                                       !- Carbon Dioxide Capacity Multiplier

OS:RunPeriod,
  {28df894d-6af9-4fb8-8f56-df1753344aa3}, !- Handle
  Run Period 1,                           !- Name
  1,                                      !- Begin Month
  1,                                      !- Begin Day of Month
  12,                                     !- End Month
  31,                                     !- End Day of Month
  ,                                       !- Use Weather File Holidays and Special Days
  ,                                       !- Use Weather File Daylight Saving Period
  ,                                       !- Apply Weekend Holiday Rule
  ,                                       !- Use Weather File Rain Indicators
  ,                                       !- Use Weather File Snow Indicators
  ;                                       !- Number of Times Runperiod to be Repeated

OS:Building,
  {bf305633-c5a1-4881-9edf-ca5e1a8e1274}, !- Handle
  Building 1,                             !- Name
  ,                                       !- Building Sector Type
  ,                                       !- North Axis {deg}
  ,                                       !- Nominal Floor to Floor Height {m}
  ,                                       !- Space Type Name
  ,                                       !- Default Construction Set Name
  {6b0b84d5-3b46-4dad-a7b9-7567a3940007}, !- Default Schedule Set Name
  ,                                       !- Standards Number of Stories
  ,                                       !- Standards Number of Above Ground Stories
  Laboratory;                             !- Standards Building Type

OS:LifeCycleCost:Parameters,
  {231cf8a0-f0e7-4251-a99f-11f0d464e661}, !- Handle
  FEMP,                                   !- Analysis Type
  ,                                       !- Discounting Convention
  ,                                       !- Inflation Approach
  ,                                       !- Real Discount Rate
  ,                                       !- Nominal Discount Rate
  ,                                       !- Inflation
  ,                                       !- Base Date Month
  ,                                       !- Base Date Year
  ,                                       !- Service Date Month
  ,                                       !- Service Date Year
  ,                                       !- Length of Study Period in Years
  ,                                       !- Tax Rate
  ,                                       !- Depreciation Method
  Yes;                                    !- Use NIST Fuel Escalation Rates

OS:Facility,
  {3ba8e45b-b833-44eb-a723-ea6c3946dc96}; !- Handle

OS:SpaceType,
  {cf9a83d5-a6f3-42ae-8929-7153f54a21da}, !- Handle
  Laboratory|BlendOff|DOE Ref 2004|ASHRAE 169-2006-5A, !- Name
  {a62c437d-8795-4e97-84be-e69491bd3a6b}, !- Default Construction Set Name
  ,                                       !- Default Schedule Set Name
  {fd23e976-6b43-4016-8227-19e23e37a772}, !- Group Rendering Name
  {7952927c-32ab-4e99-bdf7-3e275ff5e992}, !- Design Specification Outdoor Air Object Name
  Laboratory,                             !- Standards Building Type
  BlendOff;                               !- Standards Space Type

OS:Rendering:Color,
  {fd23e976-6b43-4016-8227-19e23e37a772}, !- Handle
  Rendering Color 1,                      !- Name
  120,                                    !- Rendering Red Value
  230,                                    !- Rendering Green Value
  199;                                    !- Rendering Blue Value

OS:SpaceType,
  {9035e7ca-d2d1-47af-b76d-a2578fdd3c5c}, !- Handle
  Laboratory|Lab|DOE Ref 2004|ASHRAE 169-2006-5A, !- Name
  {a62c437d-8795-4e97-84be-e69491bd3a6b}, !- Default Construction Set Name
  {00f39edf-5fe3-4510-9bf7-dd9045f9b60f}, !- Default Schedule Set Name
  {9ad40cf5-d293-432e-a35d-ed78687b76f9}, !- Group Rendering Name
  {11a7f226-7e7b-4b49-9b04-0091068c2c75}, !- Design Specification Outdoor Air Object Name
  Laboratory,                             !- Standards Building Type
  Lab;                                    !- Standards Space Type

OS:Rendering:Color,
  {9ad40cf5-d293-432e-a35d-ed78687b76f9}, !- Handle
  Rendering Color 2,                      !- Name
  204,                                    !- Rendering Red Value
  120,                                    !- Rendering Green Value
  230;                                    !- Rendering Blue Value

OS:SpaceType,
  {459ac587-d297-428e-92ae-9f51bff17026}, !- Handle
  Laboratory|BlendCirc|DOE Ref 2004|ASHRAE 169-2006-5A, !- Name
  {a62c437d-8795-4e97-84be-e69491bd3a6b}, !- Default Construction Set Name
  ,                                       !- Default Schedule Set Name
  {60f8038a-8029-4c60-8f46-7fb53506d33d}, !- Group Rendering Name
  {63766831-fcdb-49f5-b450-2b91bd124060}, !- Design Specification Outdoor Air Object Name
  Laboratory,                             !- Standards Building Type
  BlendCirc;                              !- Standards Space Type

OS:Rendering:Color,
  {60f8038a-8029-4c60-8f46-7fb53506d33d}, !- Handle
  Rendering Color 3,                      !- Name
  120,                                    !- Rendering Red Value
  149,                                    !- Rendering Green Value
  230;                                    !- Rendering Blue Value

OS:SpaceType,
  {26cca1d6-4f9b-41d2-bfac-d9c9c19d3538}, !- Handle
  Laboratory|BlendMisc|DOE Ref 2004|ASHRAE 169-2006-5A, !- Name
  {a62c437d-8795-4e97-84be-e69491bd3a6b}, !- Default Construction Set Name
  ,                                       !- Default Schedule Set Name
  {a906f27a-d243-499a-93fc-bd78c2eb2a65}, !- Group Rendering Name
  {f70dd164-be96-42d0-a9b4-e0e16844ddd8}, !- Design Specification Outdoor Air Object Name
  Laboratory,                             !- Standards Building Type
  BlendMisc;                              !- Standards Space Type

OS:Rendering:Color,
  {a906f27a-d243-499a-93fc-bd78c2eb2a65}, !- Handle
  Rendering Color 4,                      !- Name
  41,                                     !- Rendering Red Value
  31,                                     !- Rendering Green Value
  169;                                    !- Rendering Blue Value

OS:SpaceType,
  {3226063c-8e17-435b-8c0c-dc3652bfafac}, !- Handle
  Laboratory|Restroom|DOE Ref 2004|ASHRAE 169-2006-5A, !- Name
  {a62c437d-8795-4e97-84be-e69491bd3a6b}, !- Default Construction Set Name
  {ee965e45-b033-4c05-ab48-e312489e4fb3}, !- Default Schedule Set Name
  {a80271fe-18c3-4dc7-a6fb-ae40ddc1accc}, !- Group Rendering Name
  {6e96b6ea-a607-465e-b669-e9a480d5988f}, !- Design Specification Outdoor Air Object Name
  Laboratory,                             !- Standards Building Type
  Restroom;                               !- Standards Space Type

OS:Rendering:Color,
  {a80271fe-18c3-4dc7-a6fb-ae40ddc1accc}, !- Handle
  Rendering Color 5,                      !- Name
  169,                                    !- Rendering Red Value
  169,                                    !- Rendering Green Value
  31;                                     !- Rendering Blue Value

OS:Schedule:Ruleset,
  {f75d7fa8-66d4-4bea-b925-b56595d616af}, !- Handle
  0800|1700|Laboratory|default|hoo,       !- Name
  {031753b3-4216-489e-9feb-fe72487a3974}, !- Schedule Type Limits Name
  {c685c7c8-229a-4a59-acfc-573b5ec1d479}, !- Default Day Schedule Name
  {9551c97e-1c80-4c51-baa3-746b25de0f86}, !- Summer Design Day Schedule Name
  {fc120cbe-e4e7-4baf-86a9-2ea54bb4f77f}; !- Winter Design Day Schedule Name

OS:Schedule:Day,
  {c685c7c8-229a-4a59-acfc-573b5ec1d479}, !- Handle
  0800|1700|Laboratory|default|hoo Schedule Week Day, !- Name
  {031753b3-4216-489e-9feb-fe72487a3974}, !- Schedule Type Limits Name
  ,                                       !- Interpolate to Timestep
  8,                                      !- Hour 1
  0,                                      !- Minute 1
  0,                                      !- Value Until Time 1
  17,                                     !- Hour 2
  0,                                      !- Minute 2
  1,                                      !- Value Until Time 2
  24,                                     !- Hour 3
  0,                                      !- Minute 3
  0;                                      !- Value Until Time 3

OS:Schedule:Day,
  {3c5685d8-dc5f-47bd-a20a-6b78f5e1784e}, !- Handle
  Schedule Day 2,                         !- Name
  ,                                       !- Schedule Type Limits Name
  ,                                       !- Interpolate to Timestep
  24,                                     !- Hour 1
  0,                                      !- Minute 1
  0;                                      !- Value Until Time 1

OS:Schedule:Day,
  {fc120cbe-e4e7-4baf-86a9-2ea54bb4f77f}, !- Handle
  0800|1700|Laboratory|default|hoo Winter Design Day, !- Name
  {031753b3-4216-489e-9feb-fe72487a3974}, !- Schedule Type Limits Name
  ,                                       !- Interpolate to Timestep
  24,                                     !- Hour 1
  0,                                      !- Minute 1
  0;                                      !- Value Until Time 1

OS:Schedule:Day,
  {a0efdd85-28ea-4f73-89e1-378e9baee49b}, !- Handle
  Schedule Day 3,                         !- Name
  ,                                       !- Schedule Type Limits Name
  ,                                       !- Interpolate to Timestep
  24,                                     !- Hour 1
  0,                                      !- Minute 1
  0;                                      !- Value Until Time 1

OS:Schedule:Day,
  {9551c97e-1c80-4c51-baa3-746b25de0f86}, !- Handle
  0800|1700|Laboratory|default|hoo Summer Design Day, !- Name
  {031753b3-4216-489e-9feb-fe72487a3974}, !- Schedule Type Limits Name
  ,                                       !- Interpolate to Timestep
  24,                                     !- Hour 1
  0,                                      !- Minute 1
  1;                                      !- Value Until Time 1

OS:DefaultScheduleSet,
  {6b0b84d5-3b46-4dad-a7b9-7567a3940007}, !- Handle
  Building Hours of Operation,            !- Name
  {f75d7fa8-66d4-4bea-b925-b56595d616af}, !- Hours of Operation Schedule Name
  ,                                       !- Number of People Schedule Name
  ,                                       !- People Activity Level Schedule Name
  ,                                       !- Lighting Schedule Name
  ,                                       !- Electric Equipment Schedule Name
  ,                                       !- Gas Equipment Schedule Name
  ,                                       !- Hot Water Equipment Schedule Name
  ,                                       !- Infiltration Schedule Name
  ,                                       !- Steam Equipment Schedule Name
  ;                                       !- Other Equipment Schedule Name

OS:ScheduleTypeLimits,
  {031753b3-4216-489e-9feb-fe72487a3974}, !- Handle
  OnOff,                                  !- Name
  0,                                      !- Lower Limit Value {BasedOnField A4}
  1,                                      !- Upper Limit Value {BasedOnField A4}
  Discrete,                               !- Numeric Type
  Availability;                           !- Unit Type

OS:Schedule:Ruleset,
  {e51c25c5-ad02-4414-ba8c-1dc71b5679ac}, !- Handle
  0800|1700|Laboratory|default|work_eff,  !- Name
  {754f6d47-9e62-44db-acfd-eed924ecd6e3}, !- Schedule Type Limits Name
  {347a52fc-63e1-4636-bbf0-c3e701897786}, !- Default Day Schedule Name
  {0c5c25f2-c688-4286-af76-6ba706f67255}, !- Summer Design Day Schedule Name
  {eaed42a7-ef74-401d-96f3-217f3edc723d}; !- Winter Design Day Schedule Name

OS:ScheduleTypeLimits,
  {754f6d47-9e62-44db-acfd-eed924ecd6e3}, !- Handle
  Fraction Schedule Type Limits,          !- Name
  0,                                      !- Lower Limit Value {BasedOnField A4}
  1,                                      !- Upper Limit Value {BasedOnField A4}
  Continuous,                             !- Numeric Type
  Dimensionless;                          !- Unit Type

OS:Schedule:Day,
  {347a52fc-63e1-4636-bbf0-c3e701897786}, !- Handle
  0800|1700|Laboratory|default|work_eff |default, !- Name
  {754f6d47-9e62-44db-acfd-eed924ecd6e3}, !- Schedule Type Limits Name
  ,                                       !- Interpolate to Timestep
  24,                                     !- Hour 1
  0,                                      !- Minute 1
  0;                                      !- Value Until Time 1

OS:Schedule:Day,
  {0c5c25f2-c688-4286-af76-6ba706f67255}, !- Handle
  0800|1700|Laboratory|default|work_eff Summer Design Day, !- Name
  {754f6d47-9e62-44db-acfd-eed924ecd6e3}, !- Schedule Type Limits Name
  ,                                       !- Interpolate to Timestep
  24,                                     !- Hour 1
  0,                                      !- Minute 1
  0;                                      !- Value Until Time 1

OS:Schedule:Day,
  {eaed42a7-ef74-401d-96f3-217f3edc723d}, !- Handle
  0800|1700|Laboratory|default|work_eff Winter Design Day, !- Name
  {754f6d47-9e62-44db-acfd-eed924ecd6e3}, !- Schedule Type Limits Name
  ,                                       !- Interpolate to Timestep
  24,                                     !- Hour 1
  0,                                      !- Minute 1
  0;                                      !- Value Until Time 1

OS:Schedule:Ruleset,
  {21f39c38-69f4-49c6-8e64-4edded2db577}, !- Handle
  0800|1700|Laboratory|default|swh_target_temp, !- Name
  {5e5ed3dd-fa86-48b9-82a4-8d38b1642153}, !- Schedule Type Limits Name
  {48701b08-f781-4026-9ca5-1d4a089ad6eb}, !- Default Day Schedule Name
  {9b175efe-075f-4ac4-b0a7-1f45d9b86d8a}, !- Summer Design Day Schedule Name
  {f943b351-bec1-477e-99b8-99c2934625f9}; !- Winter Design Day Schedule Name

OS:ScheduleTypeLimits,
  {5e5ed3dd-fa86-48b9-82a4-8d38b1642153}, !- Handle
  Temperature Schedule Type Limits,       !- Name
  ,                                       !- Lower Limit Value {BasedOnField A4}
  ,                                       !- Upper Limit Value {BasedOnField A4}
  Continuous,                             !- Numeric Type
  Temperature;                            !- Unit Type

OS:Schedule:Day,
  {48701b08-f781-4026-9ca5-1d4a089ad6eb}, !- Handle
  0800|1700|Laboratory|default|swh_target_temp |default, !- Name
  {5e5ed3dd-fa86-48b9-82a4-8d38b1642153}, !- Schedule Type Limits Name
  ,                                       !- Interpolate to Timestep
  24,                                     !- Hour 1
  0,                                      !- Minute 1
  71.1111111111111;                       !- Value Until Time 1

OS:Schedule:Day,
  {9b175efe-075f-4ac4-b0a7-1f45d9b86d8a}, !- Handle
  0800|1700|Laboratory|default|swh_target_temp Summer Design Day, !- Name
  {5e5ed3dd-fa86-48b9-82a4-8d38b1642153}, !- Schedule Type Limits Name
  ,                                       !- Interpolate to Timestep
  24,                                     !- Hour 1
  0,                                      !- Minute 1
  71.1111111111111;                       !- Value Until Time 1

OS:Schedule:Day,
  {f943b351-bec1-477e-99b8-99c2934625f9}, !- Handle
  0800|1700|Laboratory|default|swh_target_temp Winter Design Day, !- Name
  {5e5ed3dd-fa86-48b9-82a4-8d38b1642153}, !- Schedule Type Limits Name
  ,                                       !- Interpolate to Timestep
  24,                                     !- Hour 1
  0,                                      !- Minute 1
  71.1111111111111;                       !- Value Until Time 1

OS:Schedule:Ruleset,
  {7fc3b05f-b935-4b0d-b8ea-b83cc80be072}, !- Handle
  0800|1700|Laboratory|default|infiltration, !- Name
  {754f6d47-9e62-44db-acfd-eed924ecd6e3}, !- Schedule Type Limits Name
  {2bf9e9f6-a95c-4e93-bd79-ec3ae02aa60e}, !- Default Day Schedule Name
  {614fa285-da4f-4787-88dd-8d95cf9be6b2}, !- Summer Design Day Schedule Name
  {af7509bc-cae0-459f-831a-3657dd2c635c}; !- Winter Design Day Schedule Name

OS:Schedule:Day,
  {2bf9e9f6-a95c-4e93-bd79-ec3ae02aa60e}, !- Handle
  0800|1700|Laboratory|default|infiltration |default, !- Name
  {754f6d47-9e62-44db-acfd-eed924ecd6e3}, !- Schedule Type Limits Name
  ,                                       !- Interpolate to Timestep
  6,                                      !- Hour 1
  0,                                      !- Minute 1
  0.25,                                   !- Value Until Time 1
  22,                                     !- Hour 2
  0,                                      !- Minute 2
  1,                                      !- Value Until Time 2
  24,                                     !- Hour 3
  0,                                      !- Minute 3
  0.25;                                   !- Value Until Time 3

OS:Schedule:Day,
  {614fa285-da4f-4787-88dd-8d95cf9be6b2}, !- Handle
  0800|1700|Laboratory|default|infiltration Summer Design Day, !- Name
  {754f6d47-9e62-44db-acfd-eed924ecd6e3}, !- Schedule Type Limits Name
  ,                                       !- Interpolate to Timestep
  6,                                      !- Hour 1
  0,                                      !- Minute 1
  0.25,                                   !- Value Until Time 1
  22,                                     !- Hour 2
  0,                                      !- Minute 2
  1,                                      !- Value Until Time 2
  24,                                     !- Hour 3
  0,                                      !- Minute 3
  0.25;                                   !- Value Until Time 3

OS:Schedule:Day,
  {af7509bc-cae0-459f-831a-3657dd2c635c}, !- Handle
  0800|1700|Laboratory|default|infiltration Winter Design Day, !- Name
  {754f6d47-9e62-44db-acfd-eed924ecd6e3}, !- Schedule Type Limits Name
  ,                                       !- Interpolate to Timestep
  6,                                      !- Hour 1
  0,                                      !- Minute 1
  0.25,                                   !- Value Until Time 1
  22,                                     !- Hour 2
  0,                                      !- Minute 2
  1,                                      !- Value Until Time 2
  24,                                     !- Hour 3
  0,                                      !- Minute 3
  0.25;                                   !- Value Until Time 3

OS:Schedule:Rule,
  {dd4ba662-22c7-4384-a10c-776c4b41cb69}, !- Handle
  0800|1700|Laboratory|default|infiltration |1/1-12/31|Sun Rule, !- Name
  {7fc3b05f-b935-4b0d-b8ea-b83cc80be072}, !- Schedule Ruleset Name
  0,                                      !- Rule Order
  {93483293-9bd1-4f7a-8314-0ea22e6cc07b}, !- Day Schedule Name
  Yes,                                    !- Apply Sunday
  ,                                       !- Apply Monday
  ,                                       !- Apply Tuesday
  ,                                       !- Apply Wednesday
  ,                                       !- Apply Thursday
  ,                                       !- Apply Friday
  ,                                       !- Apply Saturday
  ,                                       !- Apply Holiday
  DateRange,                              !- Date Specification Type
  1,                                      !- Start Month
  1,                                      !- Start Day
  12,                                     !- End Month
  31;                                     !- End Day

OS:Schedule:Day,
  {93483293-9bd1-4f7a-8314-0ea22e6cc07b}, !- Handle
  0800|1700|Laboratory|default|infiltration |1/1-12/31|Sun, !- Name
  {754f6d47-9e62-44db-acfd-eed924ecd6e3}, !- Schedule Type Limits Name
  ,                                       !- Interpolate to Timestep
  24,                                     !- Hour 1
  0,                                      !- Minute 1
  1;                                      !- Value Until Time 1

OS:Schedule:Rule,
  {875dae42-a0ef-4a9a-b74a-17e4526d7548}, !- Handle
  0800|1700|Laboratory|default|infiltration |1/1-12/31|Sat Rule, !- Name
  {7fc3b05f-b935-4b0d-b8ea-b83cc80be072}, !- Schedule Ruleset Name
  1,                                      !- Rule Order
  {4f764094-8684-48f6-a3db-c0cd00f92ada}, !- Day Schedule Name
  ,                                       !- Apply Sunday
  ,                                       !- Apply Monday
  ,                                       !- Apply Tuesday
  ,                                       !- Apply Wednesday
  ,                                       !- Apply Thursday
  ,                                       !- Apply Friday
  Yes,                                    !- Apply Saturday
  ,                                       !- Apply Holiday
  DateRange,                              !- Date Specification Type
  1,                                      !- Start Month
  1,                                      !- Start Day
  12,                                     !- End Month
  31;                                     !- End Day

OS:Schedule:Day,
  {4f764094-8684-48f6-a3db-c0cd00f92ada}, !- Handle
  0800|1700|Laboratory|default|infiltration |1/1-12/31|Sat, !- Name
  {754f6d47-9e62-44db-acfd-eed924ecd6e3}, !- Schedule Type Limits Name
  ,                                       !- Interpolate to Timestep
  6,                                      !- Hour 1
  0,                                      !- Minute 1
  0.25,                                   !- Value Until Time 1
  18,                                     !- Hour 2
  0,                                      !- Minute 2
  1,                                      !- Value Until Time 2
  24,                                     !- Hour 3
  0,                                      !- Minute 3
  0.25;                                   !- Value Until Time 3

OS:Schedule:Ruleset,
  {2de68a22-b8c5-4727-9485-d79b97069f98}, !- Handle
  0800|1700|Laboratory|default|clg_setpoint, !- Name
  {2773a636-17b5-4dd5-9108-6d488a356a0c}, !- Schedule Type Limits Name
  {8bc3c073-d4f6-41a4-a5c2-9794a536bdb1}, !- Default Day Schedule Name
  {ab593d27-c6d6-4d09-a09c-ddbadeb521cb}, !- Summer Design Day Schedule Name
  {790944a6-d5c3-4069-872e-51beddf15779}; !- Winter Design Day Schedule Name

OS:ScheduleTypeLimits,
  {2773a636-17b5-4dd5-9108-6d488a356a0c}, !- Handle
  Thermostat Cooling Setpoint Schedule Type Limits, !- Name
  0,                                      !- Lower Limit Value {BasedOnField A4}
  100,                                    !- Upper Limit Value {BasedOnField A4}
  Continuous,                             !- Numeric Type
  Temperature;                            !- Unit Type

OS:Schedule:Day,
  {8bc3c073-d4f6-41a4-a5c2-9794a536bdb1}, !- Handle
  0800|1700|Laboratory|default|clg_setpoint |default, !- Name
  {2773a636-17b5-4dd5-9108-6d488a356a0c}, !- Schedule Type Limits Name
  ,                                       !- Interpolate to Timestep
  6,                                      !- Hour 1
  0,                                      !- Minute 1
  26.7222222222223,                       !- Value Until Time 1
  22,                                     !- Hour 2
  0,                                      !- Minute 2
  24.0000000000001,                       !- Value Until Time 2
  24,                                     !- Hour 3
  0,                                      !- Minute 3
  26.7222222222223;                       !- Value Until Time 3

OS:Schedule:Day,
  {ab593d27-c6d6-4d09-a09c-ddbadeb521cb}, !- Handle
  0800|1700|Laboratory|default|clg_setpoint Summer Design Day, !- Name
  {2773a636-17b5-4dd5-9108-6d488a356a0c}, !- Schedule Type Limits Name
  ,                                       !- Interpolate to Timestep
  24,                                     !- Hour 1
  0,                                      !- Minute 1
  26.7222222222223;                       !- Value Until Time 1

OS:Schedule:Day,
  {790944a6-d5c3-4069-872e-51beddf15779}, !- Handle
  0800|1700|Laboratory|default|clg_setpoint Winter Design Day, !- Name
  {2773a636-17b5-4dd5-9108-6d488a356a0c}, !- Schedule Type Limits Name
  ,                                       !- Interpolate to Timestep
  6,                                      !- Hour 1
  0,                                      !- Minute 1
  26.7222222222223,                       !- Value Until Time 1
  22,                                     !- Hour 2
  0,                                      !- Minute 2
  24.0000000000001,                       !- Value Until Time 2
  24,                                     !- Hour 3
  0,                                      !- Minute 3
  26.7222222222223;                       !- Value Until Time 3

OS:Schedule:Rule,
  {b436a0f3-3526-40ab-9f8c-52424392b03b}, !- Handle
  0800|1700|Laboratory|default|clg_setpoint |1/1-12/31|Sun Rule, !- Name
  {2de68a22-b8c5-4727-9485-d79b97069f98}, !- Schedule Ruleset Name
  0,                                      !- Rule Order
  {026cdda0-bf82-4e43-b153-7d569a875934}, !- Day Schedule Name
  Yes,                                    !- Apply Sunday
  ,                                       !- Apply Monday
  ,                                       !- Apply Tuesday
  ,                                       !- Apply Wednesday