
OS:Version,
  {dc2b4f93-2255-4e76-92a0-3ec53aa2199f}, !- Handle
  1.5.5;                                  !- Version Identifier

OS:ClimateZones,
  {135edfab-17e7-40db-a436-27d385a8cd6d}, !- Handle
  ,                                       !- Active Institution
  ,                                       !- Active Year
  ASHRAE,                                 !- Climate Zone Institution Name 1
  ANSI/ASHRAE Standard 169,               !- Climate Zone Document Name 1
  2006,                                   !- Climate Zone Document Year 1
  ,                                       !- Climate Zone Value 1
  CEC,                                    !- Climate Zone Institution Name 2
  California Climate Zone Descriptions,   !- Climate Zone Document Name 2
  1995,                                   !- Climate Zone Document Year 2
  ;                                       !- Climate Zone Value 2

OS:YearDescription,
  {513d8dda-86cb-442a-b01c-1f7f0e0ac70e}; !- Handle

OS:RadianceParameters,
  {270a96f1-3c86-4b75-a667-cdf22790e2c8}, !- Handle
  1,                                      !- Accumulated Rays per Record
  0,                                      !- Direct Threshold
  1,                                      !- Direct Certainty
  1,                                      !- Direct Jitter
  1,                                      !- Direct Pretest
  6,                                      !- Ambient Bounces VMX
  2,                                      !- Ambient Bounces DMX
  4050,                                   !- Ambient Divisions VMX
  512,                                    !- Ambient Divisions DMX
  256,                                    !- Ambient Supersamples
  0.001,                                  !- Limit Weight VMX
  0.001,                                  !- Limit Weight DMX
  500,                                    !- Klems Sampling Density
  146;                                    !- Sky Discretization Resolution

OS:SimulationControl,
  {2c487a4c-bac9-4ac5-b669-1e49d9da7c2b}, !- Handle
  ,                                       !- Do Zone Sizing Calculation
  ,                                       !- Do System Sizing Calculation
  ,                                       !- Do Plant Sizing Calculation
  No,                                     !- Run Simulation for Sizing Periods
  ,                                       !- Run Simulation for Weather File Run Periods
  0.04,                                   !- Loads Convergence Tolerance Value
  ,                                       !- Temperature Convergence Tolerance Value {deltaC}
  ,                                       !- Solar Distribution
  ,                                       !- Maximum Number of Warmup Days
  2;                                      !- Minimum Number of Warmup Days

OS:Sizing:Parameters,
  {dde5af6f-7923-4600-a28a-7556673a0266}, !- Handle
  1.25,                                   !- Heating Sizing Factor
  1.15;                                   !- Cooling Sizing Factor

OS:ProgramControl,
  {05027a99-f2b3-4aeb-afc6-1425fbb4371d}; !- Handle

OS:Timestep,
  {4ebc9f1e-4707-402e-9844-67eb1ffbd522}, !- Handle
  2;                                      !- Number of Timesteps per Hour

OS:OutputControl:ReportingTolerances,
  {65797aa2-06a9-45fe-b69d-bc6e060399d3}; !- Handle

OS:ConvergenceLimits,
  {9fc11aba-8822-4f3d-970c-46391ba4040d}; !- Handle

OS:ShadowCalculation,
  {ca758bea-4416-4626-9bba-3d8795c79bd6}, !- Handle
  7,                                      !- Calculation Frequency
  15000;                                  !- Maximum Figures in Shadow Overlap Calculations

OS:SurfaceConvectionAlgorithm:Inside,
  {aaabfc36-718a-4ab0-b622-f186ebb45230}, !- Handle
  TARP;                                   !- Algorithm

OS:SurfaceConvectionAlgorithm:Outside,
  {9a0a9f6f-4bbd-4b12-a121-9492a1fcd7d6}, !- Handle
  DOE-2;                                  !- Algorithm

OS:HeatBalanceAlgorithm,
  {9d93e563-e1e0-46d7-9e39-d1c8aceb7212}, !- Handle
  ConductionTransferFunction,             !- Algorithm
  200;                                    !- Surface Temperature Upper Limit {F}

OS:ZoneAirHeatBalanceAlgorithm,
  {8520d93e-310f-4696-9bcd-36228bfdd743}, !- Handle
  AnalyticalSolution;                     !- Algorithm

OS:ZoneAirContaminantBalance,
  {eb5fc3ae-fb22-4160-8fcb-3e3b22b000d3}; !- Handle

OS:ZoneCapacitanceMultiplier:ResearchSpecial,
  {4020ce4f-5a7a-4849-8028-8305d7b751b1}, !- Handle
  ,                                       !- Temperature Capacity Multiplier
  ,                                       !- Humidity Capacity Multiplier
  ;                                       !- Carbon Dioxide Capacity Multiplier

OS:RunPeriod,
  {28df894d-6af9-4fb8-8f56-df1753344aa3}, !- Handle
  Run Period 1,                           !- Name
  1,                                      !- Begin Month
  1,                                      !- Begin Day of Month
  12,                                     !- End Month
  31,                                     !- End Day of Month
  ,                                       !- Use Weather File Holidays and Special Days
  ,                                       !- Use Weather File Daylight Saving Period
  ,                                       !- Apply Weekend Holiday Rule
  ,                                       !- Use Weather File Rain Indicators
  ,                                       !- Use Weather File Snow Indicators
  ;                                       !- Number of Times Runperiod to be Repeated

OS:Building,
  {bf305633-c5a1-4881-9edf-ca5e1a8e1274}, !- Handle
  Building 1,                             !- Name
  ,                                       !- Building Sector Type
  ,                                       !- North Axis {deg}
  ,                                       !- Nominal Floor to Floor Height {m}
  ,                                       !- Space Type Name
  ,                                       !- Default Construction Set Name
  {81be87b3-f43c-47df-8473-c8503b857e0a}, !- Default Schedule Set Name
  ,                                       !- Standards Number of Stories
  ,                                       !- Standards Number of Above Ground Stories
  Laboratory;                             !- Standards Building Type

OS:LifeCycleCost:Parameters,
  {231cf8a0-f0e7-4251-a99f-11f0d464e661}, !- Handle
  FEMP,                                   !- Analysis Type
  ,                                       !- Discounting Convention
  ,                                       !- Inflation Approach
  ,                                       !- Real Discount Rate
  ,                                       !- Nominal Discount Rate
  ,                                       !- Inflation
  ,                                       !- Base Date Month
  ,                                       !- Base Date Year
  ,                                       !- Service Date Month
  ,                                       !- Service Date Year
  ,                                       !- Length of Study Period in Years
  ,                                       !- Tax Rate
  ,                                       !- Depreciation Method
  Yes;                                    !- Use NIST Fuel Escalation Rates

OS:Facility,
  {3ba8e45b-b833-44eb-a723-ea6c3946dc96}; !- Handle

OS:SpaceType,
  {6599178f-1dc1-4f4c-9dbb-24a9f47ae3e3}, !- Handle
  Laboratory|BlendOff|DOE Ref Pre-1980|ASHRAE 169-2006-5A, !- Name
  {5e961dea-5acc-4dfc-b4fe-ec8dd733f4b8}, !- Default Construction Set Name
  ,                                       !- Default Schedule Set Name
  {28eccec5-81c8-46dd-852a-aea939aa9601}, !- Group Rendering Name
  {9b411f5a-c6e6-4c45-9583-41ffe570c335}, !- Design Specification Outdoor Air Object Name
  Laboratory,                             !- Standards Building Type
  BlendOff;                               !- Standards Space Type

OS:Rendering:Color,
  {28eccec5-81c8-46dd-852a-aea939aa9601}, !- Handle
  Rendering Color 1,                      !- Name
  120,                                    !- Rendering Red Value
  230,                                    !- Rendering Green Value
  199;                                    !- Rendering Blue Value

OS:SpaceType,
  {63697e96-9579-410c-9f86-fe0b80f37af4}, !- Handle
  Laboratory|Lab|DOE Ref Pre-1980|ASHRAE 169-2006-5A, !- Name
  {5e961dea-5acc-4dfc-b4fe-ec8dd733f4b8}, !- Default Construction Set Name
  {58d5715f-c961-4e20-a075-c3e8872d8bc5}, !- Default Schedule Set Name
  {4a245002-4343-4fae-9863-1bc61bcb8fda}, !- Group Rendering Name
  {dd0ea910-4c4b-412b-98b3-ed463e4fdae2}, !- Design Specification Outdoor Air Object Name
  Laboratory,                             !- Standards Building Type
  Lab;                                    !- Standards Space Type

OS:Rendering:Color,
  {4a245002-4343-4fae-9863-1bc61bcb8fda}, !- Handle
  Rendering Color 2,                      !- Name
  204,                                    !- Rendering Red Value
  120,                                    !- Rendering Green Value
  230;                                    !- Rendering Blue Value

OS:SpaceType,
  {057a9560-5606-462a-b22d-1c906b214a72}, !- Handle
  Laboratory|BlendCirc|DOE Ref Pre-1980|ASHRAE 169-2006-5A, !- Name
  {5e961dea-5acc-4dfc-b4fe-ec8dd733f4b8}, !- Default Construction Set Name
  ,                                       !- Default Schedule Set Name
  {80daaec6-7fd4-45d3-bc22-648798b3cb55}, !- Group Rendering Name
  {7c009c4d-36b3-4f38-a8f4-8ad2f409c25b}, !- Design Specification Outdoor Air Object Name
  Laboratory,                             !- Standards Building Type
  BlendCirc;                              !- Standards Space Type

OS:Rendering:Color,
  {80daaec6-7fd4-45d3-bc22-648798b3cb55}, !- Handle
  Rendering Color 3,                      !- Name
  120,                                    !- Rendering Red Value
  149,                                    !- Rendering Green Value
  230;                                    !- Rendering Blue Value

OS:SpaceType,
  {99f60d7b-a37e-4366-9aa7-4bcad05c876c}, !- Handle
  Laboratory|BlendMisc|DOE Ref Pre-1980|ASHRAE 169-2006-5A, !- Name
  {5e961dea-5acc-4dfc-b4fe-ec8dd733f4b8}, !- Default Construction Set Name
  ,                                       !- Default Schedule Set Name
  {66909fe7-a3c3-43b8-9635-b9c71b135156}, !- Group Rendering Name
  {5f0296fe-1fc1-4cca-a5c6-0c1bd45a2222}, !- Design Specification Outdoor Air Object Name
  Laboratory,                             !- Standards Building Type
  BlendMisc;                              !- Standards Space Type

OS:Rendering:Color,
  {66909fe7-a3c3-43b8-9635-b9c71b135156}, !- Handle
  Rendering Color 4,                      !- Name
  41,                                     !- Rendering Red Value
  31,                                     !- Rendering Green Value
  169;                                    !- Rendering Blue Value

OS:SpaceType,
  {56af81cc-3d27-4113-8925-1e23a3217449}, !- Handle
  Laboratory|Restroom|DOE Ref Pre-1980|ASHRAE 169-2006-5A, !- Name
  {5e961dea-5acc-4dfc-b4fe-ec8dd733f4b8}, !- Default Construction Set Name
  {569731c6-2c14-4010-8751-f3375af2f90f}, !- Default Schedule Set Name
  {8336dbc9-2338-47bd-9d0c-e82e993e842b}, !- Group Rendering Name
  {d3c90dc2-b109-4d8a-9f5b-6e33f5a7d06a}, !- Design Specification Outdoor Air Object Name
  Laboratory,                             !- Standards Building Type
  Restroom;                               !- Standards Space Type

OS:Rendering:Color,
  {8336dbc9-2338-47bd-9d0c-e82e993e842b}, !- Handle
  Rendering Color 5,                      !- Name
  169,                                    !- Rendering Red Value
  169,                                    !- Rendering Green Value
  31;                                     !- Rendering Blue Value

OS:Schedule:Ruleset,
  {66ef6322-fff4-48ac-a7d6-62dee316fa51}, !- Handle
  0800|1700|Laboratory|default|hoo,       !- Name
  {9f5edccf-cfc4-42f7-af91-f01917be6966}, !- Schedule Type Limits Name
  {b6c7035c-4f0d-4938-b05b-1f5a1a831fad}, !- Default Day Schedule Name
  {a65ca9d2-7f6b-45a3-b70c-03b1e0387c88}, !- Summer Design Day Schedule Name
  {baaf6be1-2a29-4a83-b5c6-660ec3afa425}; !- Winter Design Day Schedule Name

OS:Schedule:Day,
  {b6c7035c-4f0d-4938-b05b-1f5a1a831fad}, !- Handle
  0800|1700|Laboratory|default|hoo Schedule Week Day, !- Name
  {9f5edccf-cfc4-42f7-af91-f01917be6966}, !- Schedule Type Limits Name
  ,                                       !- Interpolate to Timestep
  8,                                      !- Hour 1
  0,                                      !- Minute 1
  0,                                      !- Value Until Time 1
  17,                                     !- Hour 2
  0,                                      !- Minute 2
  1,                                      !- Value Until Time 2
  24,                                     !- Hour 3
  0,                                      !- Minute 3
  0;                                      !- Value Until Time 3

OS:Schedule:Day,
  {0d43fafc-9b34-4572-8d86-36d099e4195d}, !- Handle
  Schedule Day 2,                         !- Name
  ,                                       !- Schedule Type Limits Name
  ,                                       !- Interpolate to Timestep
  24,                                     !- Hour 1
  0,                                      !- Minute 1
  0;                                      !- Value Until Time 1

OS:Schedule:Day,
  {baaf6be1-2a29-4a83-b5c6-660ec3afa425}, !- Handle
  0800|1700|Laboratory|default|hoo Winter Design Day, !- Name
  {9f5edccf-cfc4-42f7-af91-f01917be6966}, !- Schedule Type Limits Name
  ,                                       !- Interpolate to Timestep
  24,                                     !- Hour 1
  0,                                      !- Minute 1
  0;                                      !- Value Until Time 1

OS:Schedule:Day,
  {f064ad99-2287-47a6-8121-398e8d8502e0}, !- Handle
  Schedule Day 3,                         !- Name
  ,                                       !- Schedule Type Limits Name
  ,                                       !- Interpolate to Timestep
  24,                                     !- Hour 1
  0,                                      !- Minute 1
  0;                                      !- Value Until Time 1

OS:Schedule:Day,
  {a65ca9d2-7f6b-45a3-b70c-03b1e0387c88}, !- Handle
  0800|1700|Laboratory|default|hoo Summer Design Day, !- Name
  {9f5edccf-cfc4-42f7-af91-f01917be6966}, !- Schedule Type Limits Name
  ,                                       !- Interpolate to Timestep
  24,                                     !- Hour 1
  0,                                      !- Minute 1
  1;                                      !- Value Until Time 1

OS:DefaultScheduleSet,
  {81be87b3-f43c-47df-8473-c8503b857e0a}, !- Handle
  Building Hours of Operation,            !- Name
  {66ef6322-fff4-48ac-a7d6-62dee316fa51}, !- Hours of Operation Schedule Name
  ,                                       !- Number of People Schedule Name
  ,                                       !- People Activity Level Schedule Name
  ,                                       !- Lighting Schedule Name
  ,                                       !- Electric Equipment Schedule Name
  ,                                       !- Gas Equipment Schedule Name
  ,                                       !- Hot Water Equipment Schedule Name
  ,                                       !- Infiltration Schedule Name
  ,                                       !- Steam Equipment Schedule Name
  ;                                       !- Other Equipment Schedule Name

OS:ScheduleTypeLimits,
  {9f5edccf-cfc4-42f7-af91-f01917be6966}, !- Handle
  OnOff,                                  !- Name
  0,                                      !- Lower Limit Value {BasedOnField A4}
  1,                                      !- Upper Limit Value {BasedOnField A4}
  Discrete,                               !- Numeric Type
  Availability;                           !- Unit Type

OS:Schedule:Ruleset,
  {1746867a-a937-42b5-a925-b6e976abff18}, !- Handle
  0800|1700|Laboratory|default|work_eff,  !- Name
  {2676f522-6b9f-447c-90da-6296f42324f0}, !- Schedule Type Limits Name
  {6a9dcbea-d69c-49af-be05-77a68a0009e3}, !- Default Day Schedule Name
  {8191673b-a11e-4cf4-af89-7e5ec3e9104a}, !- Summer Design Day Schedule Name
  {ddce6146-006a-4ab9-9966-1ceffa97814e}; !- Winter Design Day Schedule Name

OS:ScheduleTypeLimits,
  {2676f522-6b9f-447c-90da-6296f42324f0}, !- Handle
  Fraction Schedule Type Limits,          !- Name
  0,                                      !- Lower Limit Value {BasedOnField A4}
  1,                                      !- Upper Limit Value {BasedOnField A4}
  Continuous,                             !- Numeric Type
  Dimensionless;                          !- Unit Type

OS:Schedule:Day,
  {6a9dcbea-d69c-49af-be05-77a68a0009e3}, !- Handle
  0800|1700|Laboratory|default|work_eff |default, !- Name
  {2676f522-6b9f-447c-90da-6296f42324f0}, !- Schedule Type Limits Name
  ,                                       !- Interpolate to Timestep
  24,                                     !- Hour 1
  0,                                      !- Minute 1
  0;                                      !- Value Until Time 1

OS:Schedule:Day,
  {8191673b-a11e-4cf4-af89-7e5ec3e9104a}, !- Handle
  0800|1700|Laboratory|default|work_eff Summer Design Day, !- Name
  {2676f522-6b9f-447c-90da-6296f42324f0}, !- Schedule Type Limits Name
  ,                                       !- Interpolate to Timestep
  24,                                     !- Hour 1
  0,                                      !- Minute 1
  0;                                      !- Value Until Time 1

OS:Schedule:Day,
  {ddce6146-006a-4ab9-9966-1ceffa97814e}, !- Handle
  0800|1700|Laboratory|default|work_eff Winter Design Day, !- Name
  {2676f522-6b9f-447c-90da-6296f42324f0}, !- Schedule Type Limits Name
  ,                                       !- Interpolate to Timestep
  24,                                     !- Hour 1
  0,                                      !- Minute 1
  0;                                      !- Value Until Time 1

OS:Schedule:Ruleset,
  {ad199dab-ea3f-4dc7-ba3c-6cc7061786c9}, !- Handle
  0800|1700|Laboratory|default|swh_target_temp, !- Name
  {63a1286b-eea5-460c-8380-f6185750ed75}, !- Schedule Type Limits Name
  {3212241a-1f04-454f-9344-76b7e9d47a91}, !- Default Day Schedule Name
  {b5823b41-847a-44a2-a4dc-f8e6fd4799f5}, !- Summer Design Day Schedule Name
  {4a03bfc8-7ed5-4589-b27e-d82298ab0d3e}; !- Winter Design Day Schedule Name

OS:ScheduleTypeLimits,
  {63a1286b-eea5-460c-8380-f6185750ed75}, !- Handle
  Temperature Schedule Type Limits,       !- Name
  ,                                       !- Lower Limit Value {BasedOnField A4}
  ,                                       !- Upper Limit Value {BasedOnField A4}
  Continuous,                             !- Numeric Type
  Temperature;                            !- Unit Type

OS:Schedule:Day,
  {3212241a-1f04-454f-9344-76b7e9d47a91}, !- Handle
  0800|1700|Laboratory|default|swh_target_temp |default, !- Name
  {63a1286b-eea5-460c-8380-f6185750ed75}, !- Schedule Type Limits Name
  ,                                       !- Interpolate to Timestep
  24,                                     !- Hour 1
  0,                                      !- Minute 1
  71.1111111111111;                       !- Value Until Time 1

OS:Schedule:Day,
  {b5823b41-847a-44a2-a4dc-f8e6fd4799f5}, !- Handle
  0800|1700|Laboratory|default|swh_target_temp Summer Design Day, !- Name
  {63a1286b-eea5-460c-8380-f6185750ed75}, !- Schedule Type Limits Name
  ,                                       !- Interpolate to Timestep
  24,                                     !- Hour 1
  0,                                      !- Minute 1
  71.1111111111111;                       !- Value Until Time 1

OS:Schedule:Day,
  {4a03bfc8-7ed5-4589-b27e-d82298ab0d3e}, !- Handle
  0800|1700|Laboratory|default|swh_target_temp Winter Design Day, !- Name
  {63a1286b-eea5-460c-8380-f6185750ed75}, !- Schedule Type Limits Name
  ,                                       !- Interpolate to Timestep
  24,                                     !- Hour 1
  0,                                      !- Minute 1
  71.1111111111111;                       !- Value Until Time 1

OS:Schedule:Ruleset,
  {38cc38c2-1ac6-4c24-81cd-41882fbb1fcf}, !- Handle
  0800|1700|Laboratory|default|infiltration, !- Name
  {2676f522-6b9f-447c-90da-6296f42324f0}, !- Schedule Type Limits Name
  {7cc794b4-f7b3-4a64-b910-c88301211326}, !- Default Day Schedule Name
  {312b3392-dd5b-4b9d-8574-d206787e5b19}, !- Summer Design Day Schedule Name
  {0615c356-37e8-40b8-81ff-7e15300cdb3b}; !- Winter Design Day Schedule Name

OS:Schedule:Day,
  {7cc794b4-f7b3-4a64-b910-c88301211326}, !- Handle
  0800|1700|Laboratory|default|infiltration |default, !- Name
  {2676f522-6b9f-447c-90da-6296f42324f0}, !- Schedule Type Limits Name
  ,                                       !- Interpolate to Timestep
  6,                                      !- Hour 1
  0,                                      !- Minute 1
  0.25,                                   !- Value Until Time 1
  22,                                     !- Hour 2
  0,                                      !- Minute 2
  1,                                      !- Value Until Time 2
  24,                                     !- Hour 3
  0,                                      !- Minute 3
  0.25;                                   !- Value Until Time 3

OS:Schedule:Day,
  {312b3392-dd5b-4b9d-8574-d206787e5b19}, !- Handle
  0800|1700|Laboratory|default|infiltration Summer Design Day, !- Name
  {2676f522-6b9f-447c-90da-6296f42324f0}, !- Schedule Type Limits Name
  ,                                       !- Interpolate to Timestep
  6,                                      !- Hour 1
  0,                                      !- Minute 1
  0.25,                                   !- Value Until Time 1
  22,                                     !- Hour 2
  0,                                      !- Minute 2
  1,                                      !- Value Until Time 2
  24,                                     !- Hour 3
  0,                                      !- Minute 3
  0.25;                                   !- Value Until Time 3

OS:Schedule:Day,
  {0615c356-37e8-40b8-81ff-7e15300cdb3b}, !- Handle
  0800|1700|Laboratory|default|infiltration Winter Design Day, !- Name
  {2676f522-6b9f-447c-90da-6296f42324f0}, !- Schedule Type Limits Name
  ,                                       !- Interpolate to Timestep
  6,                                      !- Hour 1
  0,                                      !- Minute 1
  0.25,                                   !- Value Until Time 1
  22,                                     !- Hour 2
  0,                                      !- Minute 2
  1,                                      !- Value Until Time 2
  24,                                     !- Hour 3
  0,                                      !- Minute 3
  0.25;                                   !- Value Until Time 3

OS:Schedule:Rule,
  {551a55a4-2e72-40f5-bf15-d3f4bb98daf8}, !- Handle
  0800|1700|Laboratory|default|infiltration |1/1-12/31|Sun Rule, !- Name
  {38cc38c2-1ac6-4c24-81cd-41882fbb1fcf}, !- Schedule Ruleset Name
  0,                                      !- Rule Order
  {9dc4076d-c0b0-4d6f-956f-da45c34e21a3}, !- Day Schedule Name
  Yes,                                    !- Apply Sunday
  ,                                       !- Apply Monday
  ,                                       !- Apply Tuesday
  ,                                       !- Apply Wednesday
  ,                                       !- Apply Thursday
  ,                                       !- Apply Friday
  ,                                       !- Apply Saturday
  ,                                       !- Apply Holiday
  DateRange,                              !- Date Specification Type
  1,                                      !- Start Month
  1,                                      !- Start Day
  12,                                     !- End Month
  31;                                     !- End Day

OS:Schedule:Day,
  {9dc4076d-c0b0-4d6f-956f-da45c34e21a3}, !- Handle
  0800|1700|Laboratory|default|infiltration |1/1-12/31|Sun, !- Name
  {2676f522-6b9f-447c-90da-6296f42324f0}, !- Schedule Type Limits Name
  ,                                       !- Interpolate to Timestep
  24,                                     !- Hour 1
  0,                                      !- Minute 1
  1;                                      !- Value Until Time 1

OS:Schedule:Rule,
  {cf49c938-7a1a-4415-91d1-3c8f2c8d61e8}, !- Handle
  0800|1700|Laboratory|default|infiltration |1/1-12/31|Sat Rule, !- Name
  {38cc38c2-1ac6-4c24-81cd-41882fbb1fcf}, !- Schedule Ruleset Name
  1,                                      !- Rule Order
  {ba5fe54d-c541-47c2-ba63-2a5ad91639b2}, !- Day Schedule Name
  ,                                       !- Apply Sunday
  ,                                       !- Apply Monday
  ,                                       !- Apply Tuesday
  ,                                       !- Apply Wednesday
  ,                                       !- Apply Thursday
  ,                                       !- Apply Friday
  Yes,                                    !- Apply Saturday
  ,                                       !- Apply Holiday
  DateRange,                              !- Date Specification Type
  1,                                      !- Start Month
  1,                                      !- Start Day
  12,                                     !- End Month
  31;                                     !- End Day

OS:Schedule:Day,
  {ba5fe54d-c541-47c2-ba63-2a5ad91639b2}, !- Handle
  0800|1700|Laboratory|default|infiltration |1/1-12/31|Sat, !- Name
  {2676f522-6b9f-447c-90da-6296f42324f0}, !- Schedule Type Limits Name
  ,                                       !- Interpolate to Timestep
  6,                                      !- Hour 1
  0,                                      !- Minute 1
  0.25,                                   !- Value Until Time 1
  18,                                     !- Hour 2
  0,                                      !- Minute 2
  1,                                      !- Value Until Time 2
  24,                                     !- Hour 3
  0,                                      !- Minute 3
  0.25;                                   !- Value Until Time 3

OS:Schedule:Ruleset,
  {1c5ba4a0-2416-4b7f-a4c1-100e6d512844}, !- Handle
  0800|1700|Laboratory|default|clg_setpoint, !- Name
  {2183bd1c-3366-445a-8fe2-361f6cceeec3}, !- Schedule Type Limits Name
  {a626c0c2-e06a-4a08-bb49-9be7a6d2a376}, !- Default Day Schedule Name
  {c6e71d24-5cc7-4b48-b821-bac7879e7e59}, !- Summer Design Day Schedule Name
  {a4bb34ab-722e-427e-b47c-50ee5000b0b9}; !- Winter Design Day Schedule Name

OS:ScheduleTypeLimits,
  {2183bd1c-3366-445a-8fe2-361f6cceeec3}, !- Handle
  Thermostat Cooling Setpoint Schedule Type Limits, !- Name
  0,                                      !- Lower Limit Value {BasedOnField A4}
  100,                                    !- Upper Limit Value {BasedOnField A4}
  Continuous,                             !- Numeric Type
  Temperature;                            !- Unit Type

OS:Schedule:Day,
  {a626c0c2-e06a-4a08-bb49-9be7a6d2a376}, !- Handle
  0800|1700|Laboratory|default|clg_setpoint |default, !- Name
  {2183bd1c-3366-445a-8fe2-361f6cceeec3}, !- Schedule Type Limits Name
  ,                                       !- Interpolate to Timestep
  6,                                      !- Hour 1
  0,                                      !- Minute 1
  26.7222222222223,                       !- Value Until Time 1
  22,                                     !- Hour 2
  0,                                      !- Minute 2
  24.0000000000001,                       !- Value Until Time 2
  24,                                     !- Hour 3
  0,                                      !- Minute 3
  26.7222222222223;                       !- Value Until Time 3

OS:Schedule:Day,
  {c6e71d24-5cc7-4b48-b821-bac7879e7e59}, !- Handle
  0800|1700|Laboratory|default|clg_setpoint Summer Design Day, !- Name
  {2183bd1c-3366-445a-8fe2-361f6cceeec3}, !- Schedule Type Limits Name
  ,                                       !- Interpolate to Timestep
  24,                                     !- Hour 1
  0,                                      !- Minute 1
  26.7222222222223;                       !- Value Until Time 1

OS:Schedule:Day,
  {a4bb34ab-722e-427e-b47c-50ee5000b0b9}, !- Handle
  0800|1700|Laboratory|default|clg_setpoint Winter Design Day, !- Name
  {2183bd1c-3366-445a-8fe2-361f6cceeec3}, !- Schedule Type Limits Name
  ,                                       !- Interpolate to Timestep
  6,                                      !- Hour 1
  0,                                      !- Minute 1
  26.7222222222223,                       !- Value Until Time 1
  22,                                     !- Hour 2
  0,                                      !- Minute 2
  24.0000000000001,                       !- Value Until Time 2
  24,                                     !- Hour 3
  0,                                      !- Minute 3
  26.7222222222223;                       !- Value Until Time 3

OS:Schedule:Rule,
  {436a1b59-fa1f-4c6a-8525-568846ac745d}, !- Handle
  0800|1700|Laboratory|default|clg_setpoint |1/1-12/31|Sun Rule, !- Name
  {1c5ba4a0-2416-4b7f-a4c1-100e6d512844}, !- Schedule Ruleset Name
  0,                                      !- Rule Order
  {1453b88a-69fe-4c3d-81cf-10de61d1ea4a}, !- Day Schedule Name
  Yes,                                    !- Apply Sunday
  ,                                       !- Apply Monday
  ,                                       !- Apply Tuesday
  ,                                       !- Apply Wednesday