
OS:Version,
  {c9a11ebb-32a8-4712-99fe-8b0d16f0f742}, !- Handle
  1.4.0;                                  !- Version Identifier

OS:Schedule:Constant,
  {9ae3a47f-cb8e-47d4-bf20-86b7f16e86a2}, !- Handle
  Always On Discrete,                     !- Name
  {dc7f21a1-a1cd-4441-9cd2-5ee5333cf4d3}, !- Schedule Type Limits Name
  1;                                      !- Value

OS:ScheduleTypeLimits,
  {dc7f21a1-a1cd-4441-9cd2-5ee5333cf4d3}, !- Handle
  Always On Discrete Limits,              !- Name
  0,                                      !- Lower Limit Value {BasedOnField A4}
  1,                                      !- Upper Limit Value {BasedOnField A4}
  Discrete,                               !- Numeric Type
  Availability;                           !- Unit Type

OS:Construction,
  {e206caf0-ac68-4d0f-916f-3248c0af8fc4}, ! Handle
  000 ExtSlabCarpet 4in ClimateZone 1-8,  ! Name
  {652c0ff3-6f38-4d3c-a431-4be7383e8005}, ! Surface Rendering Name
  {b1460b6a-9c87-482b-8a13-f9bf23e9b46c}, ! Layer 1
  {91abb326-371f-42a1-812b-92c64fb2ff30}; ! Layer 2

OS:Construction,
  {b1eb47c0-9149-442b-938c-becdd3d2d6ed}, ! Handle
  000 Exterior Door,                      ! Name
  {7328a6bd-46f2-47fa-8fa6-7835ece74cf1}, ! Surface Rendering Name
  {335ec9c2-cecc-44c4-8c05-1a107a2f942b}, ! Layer 1
  {7cccd229-890e-4c70-bfa4-20eafc7311ce}; ! Layer 2

OS:Construction,
  {4e722e00-797e-4faf-80e8-317a73614b9e}, ! Handle
  000 Exterior Window,                    ! Name
  {f283a42d-2ed3-4402-8246-2ad8cdda5926}, ! Surface Rendering Name
  {f12332ac-77d8-4092-8926-4bd9450be68f}, ! Layer 1
  {ea793df0-776e-419a-bb53-6c7d8ca93495}, ! Layer 2
  {f12332ac-77d8-4092-8926-4bd9450be68f}; ! Layer 3

OS:Construction,
  {0e07c9db-d7fc-4671-818c-4c5d19b79416}, ! Handle
  000 Interior Ceiling,                   ! Name
  {49b5f880-f1f3-46e0-a18a-64fd1f07907e}, ! Surface Rendering Name
  {fb7d20e4-c43b-4a4c-bf37-5d2cd774f78c}, ! Layer 1
  {7ad8296f-0198-446f-8df0-e6a48cb6e016}, ! Layer 2
  {105f6e89-0d5c-43c5-8efc-2cdfcb723c6b}; ! Layer 3

OS:Construction,
  {39b8761a-8e47-4608-ad3a-38a4555cfc2d}, ! Handle
  000 Interior Door,                      ! Name
  {f62ebda8-941d-4f56-8ad5-c641b22405a1}, ! Surface Rendering Name
  {6c393407-df2f-4317-a143-eafee7773de1}; ! Layer 1

OS:Construction,
  {967fa89d-c099-4129-be7b-349e64d17d77}, ! Handle
  000 Interior Floor,                     ! Name
  {60d92541-eeee-4adf-a09a-21b3935be35e}, ! Surface Rendering Name
  {105f6e89-0d5c-43c5-8efc-2cdfcb723c6b}, ! Layer 1
  {7ad8296f-0198-446f-8df0-e6a48cb6e016}, ! Layer 2
  {fb7d20e4-c43b-4a4c-bf37-5d2cd774f78c}; ! Layer 3

OS:Construction,
  {06ab75d2-644c-4c3b-8ed4-2de0f1c79648}, ! Handle
  000 Interior Partition,                 ! Name
  {efbf700b-6058-4b31-b671-eee939d6e4fd}, ! Surface Rendering Name
  {6c393407-df2f-4317-a143-eafee7773de1}; ! Layer 1

OS:Construction,
  {9062d9e1-7f34-4cea-8172-fca97078d840}, ! Handle
  000 Interior Wall,                      ! Name
  {83e446b5-9184-4250-a48c-040a0d254a6f}, ! Surface Rendering Name
  {2687f52b-737d-4939-9eef-f8385fe5df34}, ! Layer 1
  {01d296b2-10a0-4b20-a410-5189362f2d25}, ! Layer 2
  {2687f52b-737d-4939-9eef-f8385fe5df34}; ! Layer 3

OS:Construction,
  {1673f6e3-b916-4981-9939-663733db47bf}, ! Handle
  000 Interior Window,                    ! Name
  {653b0251-117e-4140-8cee-717503cc2328}, ! Surface Rendering Name
  {f12332ac-77d8-4092-8926-4bd9450be68f}; ! Layer 1

OS:Construction,
  {43d6bfde-370b-4848-bebf-a7b1692c3a7f}, ! Handle
  CBECS 1980-2004 ExtRoof IEAD ClimateZone 5b, ! Name
  {3eb214b5-6759-4dee-8fec-035837c504fa}, ! Surface Rendering Name
  {287f4923-83c0-45ad-96fb-2025616216b3}, ! Layer 1
  {86480990-e848-431f-b5b7-7128fde215f4}, ! Layer 2
  {25aa6d7a-edbf-4687-a6b8-1cf632ffc0a4}; ! Layer 3

OS:Construction,
  {344159ad-0cac-426e-8121-299eea6e69b1}, ! Handle
  CBECS 1980-2004 ExtWall Mass ClimateZone 5b, ! Name
  {8c906227-5792-4c8e-8ed9-6fcbf26ae8ae}, ! Surface Rendering Name
  {876daf02-9ba1-427c-8fd6-d0480511d9b1}, ! Layer 1
  {cf94f53a-e26c-4eba-8b6a-b9c05e36c667}, ! Layer 2
  {0abce58f-9d86-47e4-ac7a-517a984eb526}, ! Layer 3
  {d0bcdec4-4897-4980-a6ac-f1dbf3b08e82}; ! Layer 4

OS:Construction,
  {56a62378-58d5-4197-826e-2c15199201d7}, ! Handle
  CBECS 1980-2004 ExtWindow ClimateZone alt-lrgoff hosp 1-8, ! Name
  {1e6381b4-cb4b-4438-80be-2539c1321a6d}, ! Surface Rendering Name
  {9e67a065-73e3-4339-a787-f50e8428c584}; ! Layer 1

OS:DefaultConstructionSet,
  {e52714d1-d85a-4d6e-ac7b-5d3b24dc2966}, ! Handle
  CBECS 1980-2004 ClimateZone 5b (lgoff) ConstSet, ! Name
  {4998f4a8-e561-41ad-870d-89f196b58dbd}, ! Default Exterior Surface Constructions Name
  {0d8992fb-e83e-4c1b-95d7-d2c665ce9f69}, ! Default Interior Surface Constructions Name
  {6f7bc9b9-8900-402e-bad8-5e3d222e7a3c}, ! Default Ground Contact Surface Constructions Name
  {6ef2c02e-2970-4e8e-9832-7455b816ea91}, ! Default Exterior SubSurface Constructions Name
  {0ffacea4-a03f-475b-a7c7-31b9e483bad7}, ! Default Interior SubSurface Constructions Name
  {06ab75d2-644c-4c3b-8ed4-2de0f1c79648}, ! Interior Partition Construction Name
  ,                                       ! Space Shading Construction Name
  ,                                       ! Building Shading Construction Name
  ;                                       ! Site Shading Construction Name

OS:DefaultScheduleSet,
  {4b1cb152-4000-42ad-96af-70e0d363342d}, ! Handle
  LargeOffice Schedules,                  ! Name
  ,                                       ! Hours of Operation Schedule Name
  {689f9644-56eb-4140-a2d4-e6b21488b0ed}, ! Number of People Schedule Name
  {3780065d-5bb9-4f4d-a7af-05fcd0bbd633}, ! People Activity Level Schedule Name
  {07d55e2e-6119-41b1-81eb-8a7df023b9d4}, ! Lighting Schedule Name
  {d5769323-83ff-4054-ba59-6ed2e81c5a1b}, ! Electric Equipment Schedule Name
  ,                                       ! Gas Equipment Schedule Name
  ,                                       ! Hot Water Equipment Schedule Name
  {d2060343-003f-446c-8295-c9c3b09a2be8}, ! Infiltration Schedule Name
  ,                                       ! Steam Equipment Schedule Name
  ;                                       ! Other Equipment Schedule Name

OS:DefaultScheduleSet,
  {326f7903-5012-4069-9b93-86f09d0ec839}, ! Handle
  Attic Schedules,                        ! Name
  ,                                       ! Hours of Operation Schedule Name
  ,                                       ! Number of People Schedule Name
  ,                                       ! People Activity Level Schedule Name
  ,                                       ! Lighting Schedule Name
  ,                                       ! Electric Equipment Schedule Name
  ,                                       ! Gas Equipment Schedule Name
  ,                                       ! Hot Water Equipment Schedule Name
  {997d90da-e0c6-41f0-bac8-0c6f8fd3d89a}, ! Infiltration Schedule Name
  ,                                       ! Steam Equipment Schedule Name
  ;                                       ! Other Equipment Schedule Name

OS:DefaultSubSurfaceConstructions,
  {0ffacea4-a03f-475b-a7c7-31b9e483bad7}, ! Handle
  000 Interior DefSubCons,                ! Name
  {1673f6e3-b916-4981-9939-663733db47bf}, ! Fixed Window Construction Name
  {1673f6e3-b916-4981-9939-663733db47bf}, ! Operable Window Construction Name
  {39b8761a-8e47-4608-ad3a-38a4555cfc2d}, ! Door Construction Name
  {4e722e00-797e-4faf-80e8-317a73614b9e}, ! Glass Door Construction Name
  ,                                       ! Overhead Door Construction Name
  {4e722e00-797e-4faf-80e8-317a73614b9e}, ! Skylight Construction Name
  {1673f6e3-b916-4981-9939-663733db47bf}, ! Tubular Daylight Dome Construction Name
  {1673f6e3-b916-4981-9939-663733db47bf}; ! Tubular Daylight Diffuser Construction Name

OS:DefaultSubSurfaceConstructions,
  {6ef2c02e-2970-4e8e-9832-7455b816ea91}, ! Handle
  CBECS 1980-2004 ClimateZone 5b (lgoff) Exterior DefSubCons, ! Name
  {56a62378-58d5-4197-826e-2c15199201d7}, ! Fixed Window Construction Name
  {56a62378-58d5-4197-826e-2c15199201d7}, ! Operable Window Construction Name
  {b1eb47c0-9149-442b-938c-becdd3d2d6ed}, ! Door Construction Name
  {4e722e00-797e-4faf-80e8-317a73614b9e}, ! Glass Door Construction Name
  ,                                       ! Overhead Door Construction Name
  {4e722e00-797e-4faf-80e8-317a73614b9e}, ! Skylight Construction Name
  {1673f6e3-b916-4981-9939-663733db47bf}, ! Tubular Daylight Dome Construction Name
  {1673f6e3-b916-4981-9939-663733db47bf}; ! Tubular Daylight Diffuser Construction Name

OS:DefaultSurfaceConstructions,
  {6f7bc9b9-8900-402e-bad8-5e3d222e7a3c}, ! Handle
  000 Ground DefSurfCons,                 ! Name
  {e206caf0-ac68-4d0f-916f-3248c0af8fc4}, ! Floor Construction Name
  {e206caf0-ac68-4d0f-916f-3248c0af8fc4}, ! Wall Construction Name
  {e206caf0-ac68-4d0f-916f-3248c0af8fc4}; ! Roof Ceiling Construction Name

OS:DefaultSurfaceConstructions,
  {0d8992fb-e83e-4c1b-95d7-d2c665ce9f69}, ! Handle
  000 Interior DefSurfCons,               ! Name
  {967fa89d-c099-4129-be7b-349e64d17d77}, ! Floor Construction Name
  {9062d9e1-7f34-4cea-8172-fca97078d840}, ! Wall Construction Name
  {0e07c9db-d7fc-4671-818c-4c5d19b79416}; ! Roof Ceiling Construction Name

OS:DefaultSurfaceConstructions,
  {4998f4a8-e561-41ad-870d-89f196b58dbd}, ! Handle
  CBECS 1980-2004 ClimateZone 5b (lgoff) Exterior DefSurfCons, ! Name
  {e206caf0-ac68-4d0f-916f-3248c0af8fc4}, ! Floor Construction Name
  {344159ad-0cac-426e-8121-299eea6e69b1}, ! Wall Construction Name
  {43d6bfde-370b-4848-bebf-a7b1692c3a7f}; ! Roof Ceiling Construction Name

OS:DesignSpecification:OutdoorAir,
  {2f920781-e4ad-41a4-a8e3-9d7c8e4034c9}, ! Handle
  LargeOffice Outdoor Air,                ! Name
  Sum,                                    ! Outdoor Air Method
  0.0107645200000431,                     ! Outdoor Air Flow per Person
  0.0,                                    ! Outdoor Air Flow per Floor Area
  0,                                      ! Outdoor Air Flow Rate
  0,                                      ! Outdoor Air Flow Air Changes per Hour
  ;                                       ! Outdoor Air Flow Rate Fraction Schedule Name

OS:ElectricEquipment,
  {d7ac52c1-e048-4724-9252-aa93cd25a488}, ! Handle
  CBECS 1980-2004 LargeOffice ElecInst,   ! Name
  {4e4a1be0-76be-44b0-9641-2a6395746469}, ! Electric Equipment Definition Name
  {8feecfd0-f5ce-4855-8e9e-bb863ae4c39b}, ! Space or SpaceType Name
  ,                                       ! Schedule Name
  ,                                       ! Multiplier
  ElectricEquipment;                      ! End-Use Subcategory

OS:ElectricEquipment:Definition,
  {4e4a1be0-76be-44b0-9641-2a6395746469}, ! Handle
  CBECS 1980-2004 LargeOffice ElecDef,    ! Name
  Watts/Area,                             ! Design Level Calculation Method
  0,                                      ! Design Level
  10.763915051182416,                     ! Watts per Space Floor Area
  ;                                       ! Watts per Person

OS:Facility,
  {4db03a49-b345-4976-a084-ac8ac5ff3bf2}; ! Handle

OS:Lights,
  {875602bd-5bef-4e0b-a376-48ede6ee15dd}, ! Handle
  CBECS 1980-2004 LargeOffice LightsInst, ! Name
  {7c8adc99-1c21-437c-aa19-7894fa317979}, ! Lights Definition Name
  {8feecfd0-f5ce-4855-8e9e-bb863ae4c39b}, ! Space or SpaceType Name
  ,                                       ! Schedule Name
  ,                                       ! Fraction Replaceable
  ,                                       ! Multiplier
  Lights;                                 ! End-Use Subcategory

OS:Lights:Definition,
  {7c8adc99-1c21-437c-aa19-7894fa317979}, ! Handle
  CBECS 1980-2004 LargeOffice LightsDef,  ! Name
  Watts/Area,                             ! Design Level Calculation Method
  0,                                      ! Lighting Level
  16.145872576773623,                     ! Watts per Space Floor Area
  ;                                       ! Watts per Person

OS:Material,
  {335ec9c2-cecc-44c4-8c05-1a107a2f942b}, ! Handle
  000 F08 Metal surface,                  ! Name
  Smooth,                                 ! Roughness
  0.00080000000000000004,                 ! Thickness
  45.280000000000001,                     ! Conductivity
  7824,                                   ! Density
  500;                                    ! Specific Heat

OS:Material,
  {105f6e89-0d5c-43c5-8efc-2cdfcb723c6b}, ! Handle
  000 F16 Acoustic tile,                  ! Name
  MediumSmooth,                           ! Roughness
  0.019099999999999999,                   ! Thickness
  0.059999999999999998,                   ! Conductivity
  368,                                    ! Density
  590;                                    ! Specific Heat

OS:Material,
  {2687f52b-737d-4939-9eef-f8385fe5df34}, ! Handle
  000 G01a 19mm gypsum board,             ! Name
  MediumSmooth,                           ! Roughness
  0.019,                                  ! Thickness
  0.16,                                   ! Conductivity
  800,                                    ! Density
  1090;                                   ! Specific Heat

OS:Material,
  {6c393407-df2f-4317-a143-eafee7773de1}, ! Handle
  000 G05 25mm wood,                      ! Name
  MediumSmooth,                           ! Roughness
  0.025399999999999999,                   ! Thickness
  0.14999999999999999,                    ! Conductivity
  608,                                    ! Density
  1630;                                   ! Specific Heat

OS:Material,
  {7cccd229-890e-4c70-bfa4-20eafc7311ce}, ! Handle
  000 I01 25mm insulation board,          ! Name
  MediumRough,                            ! Roughness
  0.025399999999999999,                   ! Thickness
  0.029999999999999999,                   ! Conductivity
  43,                                     ! Density
  1210;                                   ! Specific Heat

OS:Material,
  {fb7d20e4-c43b-4a4c-bf37-5d2cd774f78c}, ! Handle
  000 M11 100mm lightweight concrete,     ! Name
  MediumRough,                            ! Roughness
  0.1016,                                 ! Thickness
  0.53000000000000003,                    ! Conductivity
  1280,                                   ! Density
  840;                                    ! Specific Heat

OS:Material,
  {d0bcdec4-4897-4980-a6ac-f1dbf3b08e82}, ! Handle
  1/2IN Gypsum,                           ! Name
  Smooth,                                 ! Roughness
  0.012699999999999999,                   ! Thickness
  0.16,                                   ! Conductivity
  784.89999999999998,                     ! Density
  830,                                    ! Specific Heat
  0.90000000000000002,                    ! Thermal Absorptance
  0.92000000000000004,                    ! Solar Absorptance
  0.92000000000000004;                    ! Visible Absorptance

OS:Material,
  {876daf02-9ba1-427c-8fd6-d0480511d9b1}, ! Handle
  1IN Stucco,                             ! Name
  Smooth,                                 ! Roughness
  0.0253,                                 ! Thickness
  0.69179999999999997,                    ! Conductivity
  1858,                                   ! Density
  837,                                    ! Specific Heat
  0.90000000000000002,                    ! Thermal Absorptance
  0.92000000000000004,                    ! Solar Absorptance
  0.92000000000000004;                    ! Visible Absorptance

OS:Material,
  {cf94f53a-e26c-4eba-8b6a-b9c05e36c667}, ! Handle
  8IN CONCRETE HW RefBldg,                ! Name
  Rough,                                  ! Roughness
  0.20319999999999999,                    ! Thickness
  1.3109999999999999,                     ! Conductivity
  2240,                                   ! Density
  836.79999999999995,                     ! Specific Heat
  0.90000000000000002,                    ! Thermal Absorptance
  0.69999999999999996,                    ! Solar Absorptance
  0.69999999999999996;                    ! Visible Absorptance

OS:Material,
  {86480990-e848-431f-b5b7-7128fde215f4}, ! Handle
  IEAD NonRes Roof Insulation-3.51,       ! Name
  MediumRough,                            ! Roughness
  0.159569498000212,                      ! Thickness
  0.049000000000000002,                   ! Conductivity
  265,                                    ! Density
  836.79999999999995,                     ! Specific Heat
  0.90000000000000002,                    ! Thermal Absorptance
  0.69999999999999996,                    ! Solar Absorptance
  0.69999999999999996;                    ! Visible Absorptance

OS:Material,
  {b1460b6a-9c87-482b-8a13-f9bf23e9b46c}, ! Handle
  MAT-CC05 4 HW CONCRETE,                 ! Name
  Rough,                                  ! Roughness
  0.1016,                                 ! Thickness
  1.3109999999999999,                     ! Conductivity
  2240,                                   ! Density
  836.79999999999995,                     ! Specific Heat
  0.90000000000000002,                    ! Thermal Absorptance
  0.69999999999999996,                    ! Solar Absorptance
  0.69999999999999996;                    ! Visible Absorptance

OS:Material,
  {0abce58f-9d86-47e4-ac7a-517a984eb526}, ! Handle
  Mass NonRes Wall Insulation-1.26,       ! Name
  MediumRough,                            ! Roughness
  0.041029913670032198,                   ! Thickness
  0.049000000000000002,                   ! Conductivity
  265,                                    ! Density
  836.79999999999995,                     ! Specific Heat
  0.90000000000000002,                    ! Thermal Absorptance
  0.69999999999999996,                    ! Solar Absorptance
  0.69999999999999996;                    ! Visible Absorptance

OS:Material,
  {25aa6d7a-edbf-4687-a6b8-1cf632ffc0a4}, ! Handle
  Metal Decking,                          ! Name
  MediumSmooth,                           ! Roughness
  0.0015,                                 ! Thickness
  45.006,                                 ! Conductivity
  7680,                                   ! Density
  418.39999999999998,                     ! Specific Heat
  0.90000000000000002,                    ! Thermal Absorptance
  0.69999999999999996,                    ! Solar Absorptance
  0.29999999999999999;                    ! Visible Absorptance

OS:Material,
  {287f4923-83c0-45ad-96fb-2025616216b3}, ! Handle
  Roof Membrane,                          ! Name
  VeryRough,                              ! Roughness
  0.0094999999999999998,                  ! Thickness
  0.16,                                   ! Conductivity
  1121.29,                                ! Density
  1460,                                   ! Specific Heat
  0.90000000000000002,                    ! Thermal Absorptance
  0.69999999999999996,                    ! Solar Absorptance
  0.69999999999999996;                    ! Visible Absorptance

OS:Material:AirGap,
  {01d296b2-10a0-4b20-a410-5189362f2d25}, ! Handle
  000 F04 Wall air space resistance,      ! Name
  0.14999999999999999;                    ! Thermal Resistance

OS:Material:AirGap,
  {7ad8296f-0198-446f-8df0-e6a48cb6e016}, ! Handle
  000 F05 Ceiling air space resistance,   ! Name
  0.17999999999999999;                    ! Thermal Resistance

OS:Material:AirWall,
  {f259a3e7-2358-4544-ba23-1b1ba1ddb35e}, ! Handle
  OS:Material:AirWall 1;                  ! Name

OS:Material:NoMass,
  {91abb326-371f-42a1-812b-92c64fb2ff30}, ! Handle
  CP02 CARPET PAD,                        ! Name
  VeryRough,                              ! Roughness
  0.2165,                                 ! Thermal Resistance
  0.90000000000000002,                    ! Thermal Absorptance
  0.69999999999999996,                    ! Solar Absorptance
  0.80000000000000004;                    ! Visible Absorptance

OS:Material:NoMass,
  {23dfee5a-8a61-4fb8-9b83-587005340e96}, ! Handle
  MAT-SHEATH,                             ! Name
  Rough,                                  ! Roughness
  0.36259999999999998,                    ! Thermal Resistance
  0.90000000000000002,                    ! Thermal Absorptance
  0.69999999999999996,                    ! Solar Absorptance
  0.69999999999999996;                    ! Visible Absorptance

OS:People,
  {17916615-52a3-4ca1-8b32-ecd95381c543}, ! Handle
  CBECS 1980-2004 LargeOffice PeopInst,   ! Name
  {496853d0-6865-412c-abd7-e2f3317c360b}, ! People Definition Name
  {8feecfd0-f5ce-4855-8e9e-bb863ae4c39b}; ! Space or SpaceType Name

OS:People:Definition,
  {496853d0-6865-412c-abd7-e2f3317c360b}, ! Handle
  LargeOffice PeopDef,                    ! Name
  People/Area,                            ! Number of People Calculation Method
  0,                                      ! Number of People
  0.053819575255912078,                   ! People per Space Floor Area
  ,                                       ! Space Floor Area per Person
  0.3;                                    ! Fraction Radiant

OS:Rendering:Color,
  {4302f1f7-59d7-4d49-8f03-880d5351eca4}, ! Handle
  000 AtticRoof ClimateZone 1-8 Color,    ! Name
  198.9,                                  ! Rendering Red Value
  0.0,                                    ! Rendering Green Value
  131.274;                                ! Rendering Blue Value

OS:Rendering:Color,
  {652c0ff3-6f38-4d3c-a431-4be7383e8005}, ! Handle
  000 ExtSlabCarpet 4in ClimateZone 1-8 Color, ! Name
  198.9,                                  ! Rendering Red Value
  0.0,                                    ! Rendering Green Value
  0.0;                                    ! Rendering Blue Value

OS:Rendering:Color,
  {aa232e42-b7cd-4a2e-aa61-5611968f7ad8}, ! Handle
  000 ExtSlabCarpet 8in ClimateZone 1-8 Color, ! Name
  147.9,                                  ! Rendering Red Value
  0.0,                                    ! Rendering Green Value
  0.0;                                    ! Rendering Blue Value

OS:Rendering:Color,
  {1a1cff80-3a94-4bd4-ac0c-21d992a75155}, ! Handle
  000 ExtSlab 4in ClimateZone 1-8 Color,  ! Name
  198.9,                                  ! Rendering Red Value
  0.0,                                    ! Rendering Green Value
  0.0;                                    ! Rendering Blue Value

OS:Rendering:Color,
  {d9907969-3dc4-4aca-994b-56b6e00d66fa}, ! Handle
  000 ExtSlab 8in ClimateZone 1-8 Color,  ! Name
  147.9,                                  ! Rendering Red Value
  0.0,                                    ! Rendering Green Value
  0.0;                                    ! Rendering Blue Value

OS:Rendering:Color,
  {7328a6bd-46f2-47fa-8fa6-7835ece74cf1}, ! Handle
  000 Exterior Door Color,                ! Name
  124.3125,                               ! Rendering Red Value
  74.5875,                                ! Rendering Green Value
  89.505;                                 ! Rendering Blue Value

OS:Rendering:Color,
  {10a989e2-1363-4122-b049-fa4de2d09322}, ! Handle
  000 Exterior Floor Color,               ! Name
  255.0,                                  ! Rendering Red Value
  40.8,                                   ! Rendering Green Value
  40.7999999999998;                       ! Rendering Blue Value

OS:Rendering:Color,
  {37411ec4-32da-42ab-93d2-672626a61d38}, ! Handle
  000 Exterior Roof Color,                ! Name
  255.0,                                  ! Rendering Red Value
  0.0,                                    ! Rendering Green Value
  0.0;                                    ! Rendering Blue Value

OS:Rendering:Color,
  {59835ec9-d8fa-496f-83d5-2eab402f03f5}, ! Handle
  000 Exterior Wall Color,                ! Name
  142.8,                                  ! Rendering Red Value
  201.144,                                ! Rendering Green Value
  255.0;                                  ! Rendering Blue Value

OS:Rendering:Color,
  {f283a42d-2ed3-4402-8246-2ad8cdda5926}, ! Handle
  000 Exterior Window Color,              ! Name
  198.9,                                  ! Rendering Red Value
  0.0,                                    ! Rendering Green Value
  59.6699999999999;                       ! Rendering Blue Value

OS:Rendering:Color,
  {49b5f880-f1f3-46e0-a18a-64fd1f07907e}, ! Handle
  000 Interior Ceiling Color,             ! Name
  219.096,                                ! Rendering Red Value
  142.8,                                  ! Rendering Green Value
  255.0;                                  ! Rendering Blue Value

OS:Rendering:Color,
  {f62ebda8-941d-4f56-8ad5-c641b22405a1}, ! Handle
  000 Interior Door Color,                ! Name
  168.606,                                ! Rendering Red Value
  255.0,                                  ! Rendering Green Value
  142.8;                                  ! Rendering Blue Value

OS:Rendering:Color,
  {60d92541-eeee-4adf-a09a-21b3935be35e}, ! Handle
  000 Interior Floor Color,               ! Name
  255.0,                                  ! Rendering Red Value
  142.8,                                  ! Rendering Green Value
  142.8;                                  ! Rendering Blue Value

OS:Rendering:Color,
  {efbf700b-6058-4b31-b671-eee939d6e4fd}, ! Handle
  000 Interior Partition Color,           ! Name
  165.24,                                 ! Rendering Red Value
  142.8,                                  ! Rendering Green Value
  255.0;                                  ! Rendering Blue Value

OS:Rendering:Color,
  {83e446b5-9184-4250-a48c-040a0d254a6f}, ! Handle
  000 Interior Wall Color,                ! Name
  142.8,                                  ! Rendering Red Value
  201.144,                                ! Rendering Green Value
  255.0;                                  ! Rendering Blue Value

OS:Rendering:Color,
  {653b0251-117e-4140-8cee-717503cc2328}, ! Handle
  000 Interior Window Color,              ! Name
  235.926,                                ! Rendering Red Value
  255.0,                                  ! Rendering Green Value
  142.8;                                  ! Rendering Blue Value

OS:Rendering:Color,
  {53bf6c2f-527f-4a13-99a2-98faf97df32a}, ! Handle
  ASHRAE 189.1-2009 AtticFloor ClimateZone 1-8 Color, ! Name
  183.9825,                               ! Rendering Red Value
  14.9175,                                ! Rendering Green Value
  126.5004;                               ! Rendering Blue Value

OS:Rendering:Color,
  {b5565a9c-84cc-4d03-ad1a-f7a9408d4fdd}, ! Handle
  ASHRAE 189.1-2009 ClimateZone 1-3 LargeOffice Color, ! Name
  120.36,                                 ! Rendering Red Value
  236.64,                                 ! Rendering Green Value
  201.756;                                ! Rendering Blue Value

OS:Rendering:Color,
  {9dff60c9-d46f-4de3-bac4-a912fc90c327}, ! Handle
  ASHRAE 189.1-2009 ClimateZone 4-8 LargeOffice Color, ! Name
  120.36,                                 ! Rendering Red Value
  236.64,                                 ! Rendering Green Value
  201.756;                                ! Rendering Blue Value

OS:Rendering:Color,
  {d69b76a0-4004-42f6-80e5-f90d596a6e4a}, ! Handle
  ASHRAE 189.1-2009 ExtRoof IEAD ClimateZone 1 Color, ! Name
  129.8817,                               ! Rendering Red Value
  14.9175,                                ! Rendering Green Value
  183.9825;                               ! Rendering Blue Value

OS:Rendering:Color,
  {74ac05d3-9c52-4b5c-8b0b-f2b45bcb543d}, ! Handle
  ASHRAE 189.1-2009 ExtRoof IEAD ClimateZone 2-5 Color, ! Name
  150.1695,                               ! Rendering Red Value
  14.9175,                                ! Rendering Green Value
  183.9825;                               ! Rendering Blue Value

OS:Rendering:Color,
  {67ad625e-2923-48aa-a05a-57ef0b62414d}, ! Handle
  ASHRAE 189.1-2009 ExtRoof IEAD ClimateZone 6 Color, ! Name
  183.9825,                               ! Rendering Red Value
  14.9175,                                ! Rendering Green Value
  106.2126;                               ! Rendering Blue Value

OS:Rendering:Color,
  {5c90e255-40fb-430f-b0a4-73e2c34ea982}, ! Handle
  ASHRAE 189.1-2009 ExtRoof IEAD ClimateZone 7-8 Color, ! Name
  183.9825,                               ! Rendering Red Value
  14.9175,                                ! Rendering Green Value
  96.0687;                                ! Rendering Blue Value

OS:Rendering:Color,
  {0192eab2-3d85-42f9-95c2-31ac9dfe005e}, ! Handle
  ASHRAE 189.1-2009 ExtRoof Metal ClimateZone 1 Color, ! Name
  180.6726,                               ! Rendering Red Value
  56.865,                                 ! Rendering Green Value
  238.935;                                ! Rendering Blue Value

OS:Rendering:Color,
  {7d00ccdd-fc83-4331-a3e5-23ba8f1e7322}, ! Handle
  ASHRAE 189.1-2009 ExtRoof Metal ClimateZone 2-5 Color, ! Name
  202.521,                                ! Rendering Red Value
  56.865,                                 ! Rendering Green Value
  238.935;                                ! Rendering Blue Value

OS:Rendering:Color,
  {8e67f69d-40a7-4b58-9cb2-9f373b6a2f71}, ! Handle
  ASHRAE 189.1-2009 ExtRoof Metal ClimateZone 6 Color, ! Name
  238.935,                                ! Rendering Red Value
  56.865,                                 ! Rendering Green Value
  155.1828;                               ! Rendering Blue Value

OS:Rendering:Color,
  {085b7915-c4fa-4d86-a9bd-c94483e051ac}, ! Handle
  ASHRAE 189.1-2009 ExtRoof Metal ClimateZone 7-8 Color, ! Name
  238.935,                                ! Rendering Red Value
  56.865,                                 ! Rendering Green Value
  144.2586;                               ! Rendering Blue Value

OS:Rendering:Color,
  {b39a1658-7a46-4c83-973b-339de1c7e8bf}, ! Handle
  ASHRAE 189.1-2009 ExtWall Mass ClimateZone 1 Color, ! Name
  7.26749999999999,                       ! Rendering Red Value
  50.0973,                                ! Rendering Green Value