
OS:Version,
  {a6519e7a-b33c-4361-85e6-1d53cc7c3315}, !- Handle
  1.5.5;                                  !- Version Identifier

OS:ClimateZones,
  {135edfab-17e7-40db-a436-27d385a8cd6d}, !- Handle
  ,                                       !- Active Institution
  ,                                       !- Active Year
  ASHRAE,                                 !- Climate Zone Institution Name 1
  ANSI/ASHRAE Standard 169,               !- Climate Zone Document Name 1
  2006,                                   !- Climate Zone Document Year 1
  ,                                       !- Climate Zone Value 1
  CEC,                                    !- Climate Zone Institution Name 2
  California Climate Zone Descriptions,   !- Climate Zone Document Name 2
  1995,                                   !- Climate Zone Document Year 2
  ;                                       !- Climate Zone Value 2

OS:YearDescription,
  {513d8dda-86cb-442a-b01c-1f7f0e0ac70e}; !- Handle

OS:RadianceParameters,
  {270a96f1-3c86-4b75-a667-cdf22790e2c8}, !- Handle
  1,                                      !- Accumulated Rays per Record
  0,                                      !- Direct Threshold
  1,                                      !- Direct Certainty
  1,                                      !- Direct Jitter
  1,                                      !- Direct Pretest
  6,                                      !- Ambient Bounces VMX
  2,                                      !- Ambient Bounces DMX
  4050,                                   !- Ambient Divisions VMX
  512,                                    !- Ambient Divisions DMX
  256,                                    !- Ambient Supersamples
  0.001,                                  !- Limit Weight VMX
  0.001,                                  !- Limit Weight DMX
  500,                                    !- Klems Sampling Density
  146;                                    !- Sky Discretization Resolution

OS:SimulationControl,
  {2c487a4c-bac9-4ac5-b669-1e49d9da7c2b}, !- Handle
  ,                                       !- Do Zone Sizing Calculation
  ,                                       !- Do System Sizing Calculation
  ,                                       !- Do Plant Sizing Calculation
  No,                                     !- Run Simulation for Sizing Periods
  ,                                       !- Run Simulation for Weather File Run Periods
  0.04,                                   !- Loads Convergence Tolerance Value
  ,                                       !- Temperature Convergence Tolerance Value {deltaC}
  ,                                       !- Solar Distribution
  ,                                       !- Maximum Number of Warmup Days
  2;                                      !- Minimum Number of Warmup Days

OS:Sizing:Parameters,
  {dde5af6f-7923-4600-a28a-7556673a0266}, !- Handle
  1.25,                                   !- Heating Sizing Factor
  1.15;                                   !- Cooling Sizing Factor

OS:ProgramControl,
  {05027a99-f2b3-4aeb-afc6-1425fbb4371d}; !- Handle

OS:Timestep,
  {4ebc9f1e-4707-402e-9844-67eb1ffbd522}, !- Handle
  2;                                      !- Number of Timesteps per Hour

OS:OutputControl:ReportingTolerances,
  {65797aa2-06a9-45fe-b69d-bc6e060399d3}; !- Handle

OS:ConvergenceLimits,
  {9fc11aba-8822-4f3d-970c-46391ba4040d}; !- Handle

OS:ShadowCalculation,
  {ca758bea-4416-4626-9bba-3d8795c79bd6}, !- Handle
  7,                                      !- Calculation Frequency
  15000;                                  !- Maximum Figures in Shadow Overlap Calculations

OS:SurfaceConvectionAlgorithm:Inside,
  {aaabfc36-718a-4ab0-b622-f186ebb45230}, !- Handle
  TARP;                                   !- Algorithm

OS:SurfaceConvectionAlgorithm:Outside,
  {9a0a9f6f-4bbd-4b12-a121-9492a1fcd7d6}, !- Handle
  DOE-2;                                  !- Algorithm

OS:HeatBalanceAlgorithm,
  {9d93e563-e1e0-46d7-9e39-d1c8aceb7212}, !- Handle
  ConductionTransferFunction,             !- Algorithm
  200;                                    !- Surface Temperature Upper Limit {F}

OS:ZoneAirHeatBalanceAlgorithm,
  {8520d93e-310f-4696-9bcd-36228bfdd743}, !- Handle
  AnalyticalSolution;                     !- Algorithm

OS:ZoneAirContaminantBalance,
  {eb5fc3ae-fb22-4160-8fcb-3e3b22b000d3}; !- Handle

OS:ZoneCapacitanceMultiplier:ResearchSpecial,
  {4020ce4f-5a7a-4849-8028-8305d7b751b1}, !- Handle
  ,                                       !- Temperature Capacity Multiplier
  ,                                       !- Humidity Capacity Multiplier
  ;                                       !- Carbon Dioxide Capacity Multiplier

OS:RunPeriod,
  {28df894d-6af9-4fb8-8f56-df1753344aa3}, !- Handle
  Run Period 1,                           !- Name
  1,                                      !- Begin Month
  1,                                      !- Begin Day of Month
  12,                                     !- End Month
  31,                                     !- End Day of Month
  ,                                       !- Use Weather File Holidays and Special Days
  ,                                       !- Use Weather File Daylight Saving Period
  ,                                       !- Apply Weekend Holiday Rule
  ,                                       !- Use Weather File Rain Indicators
  ,                                       !- Use Weather File Snow Indicators
  ;                                       !- Number of Times Runperiod to be Repeated

OS:Building,
  {bf305633-c5a1-4881-9edf-ca5e1a8e1274}, !- Handle
  Building 1,                             !- Name
  ,                                       !- Building Sector Type
  ,                                       !- North Axis {deg}
  ,                                       !- Nominal Floor to Floor Height {m}
  ,                                       !- Space Type Name
  ,                                       !- Default Construction Set Name
  {d3e8da77-5cc7-4597-9bd6-dcde2c7dcb98}, !- Default Schedule Set Name
  ,                                       !- Standards Number of Stories
  ,                                       !- Standards Number of Above Ground Stories
  LargeHotel;                             !- Standards Building Type

OS:LifeCycleCost:Parameters,
  {231cf8a0-f0e7-4251-a99f-11f0d464e661}, !- Handle
  FEMP,                                   !- Analysis Type
  ,                                       !- Discounting Convention
  ,                                       !- Inflation Approach
  ,                                       !- Real Discount Rate
  ,                                       !- Nominal Discount Rate
  ,                                       !- Inflation
  ,                                       !- Base Date Month
  ,                                       !- Base Date Year
  ,                                       !- Service Date Month
  ,                                       !- Service Date Year
  ,                                       !- Length of Study Period in Years
  ,                                       !- Tax Rate
  ,                                       !- Depreciation Method
  Yes;                                    !- Use NIST Fuel Escalation Rates

OS:Facility,
  {3ba8e45b-b833-44eb-a723-ea6c3946dc96}; !- Handle

OS:SpaceType,
  {d9f84a70-37af-4a33-a17d-09af4df769f7}, !- Handle
  LargeHotel|BlendGst|DOE Ref Pre-1980|ASHRAE 169-2006-5A, !- Name
  {39ab2b9d-3099-45ed-a8b6-b208f4878d44}, !- Default Construction Set Name
  ,                                       !- Default Schedule Set Name
  {dffbcc1c-7962-46dc-9381-29fb8063f08b}, !- Group Rendering Name
  {eb563bbc-6b0c-4275-afb9-3e607b76f8ed}, !- Design Specification Outdoor Air Object Name
  LargeHotel,                             !- Standards Building Type
  BlendGst;                               !- Standards Space Type

OS:Rendering:Color,
  {dffbcc1c-7962-46dc-9381-29fb8063f08b}, !- Handle
  Rendering Color 1,                      !- Name
  78,                                     !- Rendering Red Value
  167,                                    !- Rendering Green Value
  222;                                    !- Rendering Blue Value

OS:SpaceType,
  {55408209-ceb7-466e-a0a5-9c036a47ae2e}, !- Handle
  LargeHotel|BlendLob|DOE Ref Pre-1980|ASHRAE 169-2006-5A, !- Name
  {39ab2b9d-3099-45ed-a8b6-b208f4878d44}, !- Default Construction Set Name
  ,                                       !- Default Schedule Set Name
  {9af7f6e4-3373-4e84-b6e1-34c788209d4f}, !- Group Rendering Name
  {779330e4-e056-49c1-bb85-b4a8851d9b0e}, !- Design Specification Outdoor Air Object Name
  LargeHotel,                             !- Standards Building Type
  BlendLob;                               !- Standards Space Type

OS:Rendering:Color,
  {9af7f6e4-3373-4e84-b6e1-34c788209d4f}, !- Handle
  Rendering Color 2,                      !- Name
  230,                                    !- Rendering Red Value
  157,                                    !- Rendering Green Value
  120;                                    !- Rendering Blue Value

OS:SpaceType,
  {968f2e62-1443-4a48-8bd8-06fee8b7bf84}, !- Handle
  LargeHotel|BlendFds|DOE Ref Pre-1980|ASHRAE 169-2006-5A, !- Name
  {39ab2b9d-3099-45ed-a8b6-b208f4878d44}, !- Default Construction Set Name
  ,                                       !- Default Schedule Set Name
  {0c3b99f4-a090-40c5-b8af-e373cd7aa2c1}, !- Group Rendering Name
  {6afa8c9f-b7fa-4b61-acfe-d4a0031b3fe5}, !- Design Specification Outdoor Air Object Name
  LargeHotel,                             !- Standards Building Type
  BlendFds;                               !- Standards Space Type

OS:Rendering:Color,
  {0c3b99f4-a090-40c5-b8af-e373cd7aa2c1}, !- Handle
  Rendering Color 3,                      !- Name
  230,                                    !- Rendering Red Value
  196,                                    !- Rendering Green Value
  120;                                    !- Rendering Blue Value

OS:SpaceType,
  {8b649ef9-0bdc-4629-8634-d11140724d8f}, !- Handle
  LargeHotel|BlendMisc|DOE Ref Pre-1980|ASHRAE 169-2006-5A, !- Name
  {39ab2b9d-3099-45ed-a8b6-b208f4878d44}, !- Default Construction Set Name
  ,                                       !- Default Schedule Set Name
  {7a8da560-428f-40af-961a-0e0786698d6d}, !- Group Rendering Name
  {02cf0c86-5fa2-4f27-bdc4-56f6e60c35e3}, !- Design Specification Outdoor Air Object Name
  LargeHotel,                             !- Standards Building Type
  BlendMisc;                              !- Standards Space Type

OS:Rendering:Color,
  {7a8da560-428f-40af-961a-0e0786698d6d}, !- Handle
  Rendering Color 4,                      !- Name
  41,                                     !- Rendering Red Value
  31,                                     !- Rendering Green Value
  169;                                    !- Rendering Blue Value

OS:SpaceType,
  {476e209d-cb33-46cc-a775-babc282203e1}, !- Handle
  LargeHotel|Kitchen|DOE Ref Pre-1980|ASHRAE 169-2006-5A, !- Name
  {39ab2b9d-3099-45ed-a8b6-b208f4878d44}, !- Default Construction Set Name
  {97dbe0c6-9b45-434e-bd02-cb908195c8a3}, !- Default Schedule Set Name
  {e57c4b00-3a7b-455b-ae4f-a41b11e28d75}, !- Group Rendering Name
  {a1241b4f-f422-4c50-aa69-a83b8f3879e5}, !- Design Specification Outdoor Air Object Name
  LargeHotel,                             !- Standards Building Type
  Kitchen;                                !- Standards Space Type

OS:Rendering:Color,
  {e57c4b00-3a7b-455b-ae4f-a41b11e28d75}, !- Handle
  Rendering Color 5,                      !- Name
  78,                                     !- Rendering Red Value
  222,                                    !- Rendering Green Value
  133;                                    !- Rendering Blue Value

OS:SpaceType,
  {0faa5687-c3f8-4d3d-9b83-15adb439c3ca}, !- Handle
  LargeHotel|Laundry|DOE Ref Pre-1980|ASHRAE 169-2006-5A, !- Name
  {39ab2b9d-3099-45ed-a8b6-b208f4878d44}, !- Default Construction Set Name
  {06b07cb8-1d60-4616-9f67-f070f15c56e1}, !- Default Schedule Set Name
  {c8210039-cb62-45f5-bb64-5c387ae94251}, !- Group Rendering Name
  {b1540964-d004-460c-972b-3f046dfedc6b}, !- Design Specification Outdoor Air Object Name
  LargeHotel,                             !- Standards Building Type
  Laundry;                                !- Standards Space Type

OS:Rendering:Color,
  {c8210039-cb62-45f5-bb64-5c387ae94251}, !- Handle
  Rendering Color 6,                      !- Name
  120,                                    !- Rendering Red Value
  149,                                    !- Rendering Green Value
  230;                                    !- Rendering Blue Value

OS:Schedule:Ruleset,
  {2eb8a043-c82a-4cf2-9399-f7640a184d52}, !- Handle
  0600|2200|LargeHotel|default|hoo,       !- Name
  {83fd632f-53d8-4f63-9d64-3300c04ec927}, !- Schedule Type Limits Name
  {c96b9f61-89d0-41d0-a821-35d952eb5c1d}, !- Default Day Schedule Name
  {6019eb11-743c-4468-b250-d268cb544f32}, !- Summer Design Day Schedule Name
  {899f37a4-7838-4195-8a00-7fbff4c40f98}; !- Winter Design Day Schedule Name

OS:Schedule:Day,
  {c96b9f61-89d0-41d0-a821-35d952eb5c1d}, !- Handle
  0600|2200|LargeHotel|default|hoo Schedule Week Day, !- Name
  {83fd632f-53d8-4f63-9d64-3300c04ec927}, !- Schedule Type Limits Name
  ,                                       !- Interpolate to Timestep
  6,                                      !- Hour 1
  0,                                      !- Minute 1
  0,                                      !- Value Until Time 1
  22,                                     !- Hour 2
  0,                                      !- Minute 2
  1,                                      !- Value Until Time 2
  24,                                     !- Hour 3
  0,                                      !- Minute 3
  0;                                      !- Value Until Time 3

OS:Schedule:Day,
  {4f69ed80-bb80-477d-9251-78973e96888d}, !- Handle
  Schedule Day 2,                         !- Name
  ,                                       !- Schedule Type Limits Name
  ,                                       !- Interpolate to Timestep
  24,                                     !- Hour 1
  0,                                      !- Minute 1
  0;                                      !- Value Until Time 1

OS:Schedule:Day,
  {899f37a4-7838-4195-8a00-7fbff4c40f98}, !- Handle
  0600|2200|LargeHotel|default|hoo Winter Design Day, !- Name
  {83fd632f-53d8-4f63-9d64-3300c04ec927}, !- Schedule Type Limits Name
  ,                                       !- Interpolate to Timestep
  24,                                     !- Hour 1
  0,                                      !- Minute 1
  0;                                      !- Value Until Time 1

OS:Schedule:Day,
  {bd6b4840-47fa-4319-8fd7-d261b7663215}, !- Handle
  Schedule Day 3,                         !- Name
  ,                                       !- Schedule Type Limits Name
  ,                                       !- Interpolate to Timestep
  24,                                     !- Hour 1
  0,                                      !- Minute 1
  0;                                      !- Value Until Time 1

OS:Schedule:Day,
  {6019eb11-743c-4468-b250-d268cb544f32}, !- Handle
  0600|2200|LargeHotel|default|hoo Summer Design Day, !- Name
  {83fd632f-53d8-4f63-9d64-3300c04ec927}, !- Schedule Type Limits Name
  ,                                       !- Interpolate to Timestep
  24,                                     !- Hour 1
  0,                                      !- Minute 1
  1;                                      !- Value Until Time 1

OS:DefaultScheduleSet,
  {d3e8da77-5cc7-4597-9bd6-dcde2c7dcb98}, !- Handle
  Building Hours of Operation,            !- Name
  {2eb8a043-c82a-4cf2-9399-f7640a184d52}, !- Hours of Operation Schedule Name
  ,                                       !- Number of People Schedule Name
  ,                                       !- People Activity Level Schedule Name
  ,                                       !- Lighting Schedule Name
  ,                                       !- Electric Equipment Schedule Name
  ,                                       !- Gas Equipment Schedule Name
  ,                                       !- Hot Water Equipment Schedule Name
  ,                                       !- Infiltration Schedule Name
  ,                                       !- Steam Equipment Schedule Name
  ;                                       !- Other Equipment Schedule Name

OS:ScheduleTypeLimits,
  {83fd632f-53d8-4f63-9d64-3300c04ec927}, !- Handle
  OnOff,                                  !- Name
  0,                                      !- Lower Limit Value {BasedOnField A4}
  1,                                      !- Upper Limit Value {BasedOnField A4}
  Discrete,                               !- Numeric Type
  Availability;                           !- Unit Type

OS:Schedule:Ruleset,
  {8c33e657-647a-4bfc-989e-e90d816969f2}, !- Handle
  0600|2200|LargeHotel|default|ext_lighting, !- Name
  {70df5385-cc93-4ab4-8bb8-bdea113b7f0b}, !- Schedule Type Limits Name
  {8f5b3387-af1d-4589-adc1-c81b67343da0}, !- Default Day Schedule Name
  {3c0efdee-4546-4955-a1be-60ad46c67635}, !- Summer Design Day Schedule Name
  {a9b89f6d-b11f-40f8-afac-1bf0b09acfe5}; !- Winter Design Day Schedule Name

OS:ScheduleTypeLimits,
  {70df5385-cc93-4ab4-8bb8-bdea113b7f0b}, !- Handle
  Lights Schedule Type Limits,            !- Name
  0,                                      !- Lower Limit Value {BasedOnField A4}
  1,                                      !- Upper Limit Value {BasedOnField A4}
  Continuous,                             !- Numeric Type
  Dimensionless;                          !- Unit Type

OS:Schedule:Day,
  {8f5b3387-af1d-4589-adc1-c81b67343da0}, !- Handle
  0600|2200|LargeHotel|default|ext_lighting |default, !- Name
  {70df5385-cc93-4ab4-8bb8-bdea113b7f0b}, !- Schedule Type Limits Name
  ,                                       !- Interpolate to Timestep
  24,                                     !- Hour 1
  0,                                      !- Minute 1
  1;                                      !- Value Until Time 1

OS:Schedule:Day,
  {3c0efdee-4546-4955-a1be-60ad46c67635}, !- Handle
  0600|2200|LargeHotel|default|ext_lighting Summer Design Day, !- Name
  {70df5385-cc93-4ab4-8bb8-bdea113b7f0b}, !- Schedule Type Limits Name
  ,                                       !- Interpolate to Timestep
  24,                                     !- Hour 1
  0,                                      !- Minute 1
  1;                                      !- Value Until Time 1

OS:Schedule:Day,
  {a9b89f6d-b11f-40f8-afac-1bf0b09acfe5}, !- Handle
  0600|2200|LargeHotel|default|ext_lighting Winter Design Day, !- Name
  {70df5385-cc93-4ab4-8bb8-bdea113b7f0b}, !- Schedule Type Limits Name
  ,                                       !- Interpolate to Timestep
  24,                                     !- Hour 1
  0,                                      !- Minute 1
  1;                                      !- Value Until Time 1

OS:Schedule:Ruleset,
  {3f7957d7-b444-4f59-90c9-7f2cc4277dde}, !- Handle
  0600|2200|LargeHotel|Corridor|htg_setpoint, !- Name
  {db07e34b-f8a6-45d2-957e-0464005456e5}, !- Schedule Type Limits Name
  {c5c15310-7332-4a85-ae4a-95468ae41b6a}, !- Default Day Schedule Name
  {4b4428e0-c3fd-4754-af71-2b642d312662}, !- Summer Design Day Schedule Name
  {3d524703-26f4-4cd5-a52a-5666a07a8f14}; !- Winter Design Day Schedule Name

OS:ScheduleTypeLimits,
  {db07e34b-f8a6-45d2-957e-0464005456e5}, !- Handle
  Thermostat Heating Setpoint Schedule Type Limits, !- Name
  0,                                      !- Lower Limit Value {BasedOnField A4}
  100,                                    !- Upper Limit Value {BasedOnField A4}
  Continuous,                             !- Numeric Type
  Temperature;                            !- Unit Type

OS:Schedule:Day,
  {c5c15310-7332-4a85-ae4a-95468ae41b6a}, !- Handle
  0600|2200|LargeHotel|Corridor|htg_setpoint |default, !- Name
  {db07e34b-f8a6-45d2-957e-0464005456e5}, !- Schedule Type Limits Name
  ,                                       !- Interpolate to Timestep
  24,                                     !- Hour 1
  0,                                      !- Minute 1
  16.0000000000001;                       !- Value Until Time 1

OS:Schedule:Day,
  {4b4428e0-c3fd-4754-af71-2b642d312662}, !- Handle
  0600|2200|LargeHotel|Corridor|htg_setpoint Summer Design Day, !- Name
  {db07e34b-f8a6-45d2-957e-0464005456e5}, !- Schedule Type Limits Name
  ,                                       !- Interpolate to Timestep
  24,                                     !- Hour 1
  0,                                      !- Minute 1
  16.0000000000001;                       !- Value Until Time 1

OS:Schedule:Day,
  {3d524703-26f4-4cd5-a52a-5666a07a8f14}, !- Handle
  0600|2200|LargeHotel|Corridor|htg_setpoint Winter Design Day, !- Name
  {db07e34b-f8a6-45d2-957e-0464005456e5}, !- Schedule Type Limits Name
  ,                                       !- Interpolate to Timestep
  24,                                     !- Hour 1
  0,                                      !- Minute 1
  16.0000000000001;                       !- Value Until Time 1

OS:Schedule:Ruleset,
  {2e063ab7-0667-4b31-9c49-e88cbf45b35d}, !- Handle
  0600|2200|LargeHotel|default|elec_equip, !- Name
  {542336fb-47b5-4a88-a274-e40426c099e4}, !- Schedule Type Limits Name
  {7a84082f-a2de-469a-81bb-3da89a84f285}, !- Default Day Schedule Name
  {8ee3de12-75f2-4212-9a32-95e564eaee92}, !- Summer Design Day Schedule Name
  {7e451186-d9ab-44b7-998e-efe095a243b6}; !- Winter Design Day Schedule Name

OS:ScheduleTypeLimits,
  {542336fb-47b5-4a88-a274-e40426c099e4}, !- Handle
  Equipment Schedule Type Limits,         !- Name
  0,                                      !- Lower Limit Value {BasedOnField A4}
  1,                                      !- Upper Limit Value {BasedOnField A4}
  Continuous,                             !- Numeric Type
  Dimensionless;                          !- Unit Type

OS:Schedule:Day,
  {7a84082f-a2de-469a-81bb-3da89a84f285}, !- Handle
  0600|2200|LargeHotel|default|elec_equip |default, !- Name
  {542336fb-47b5-4a88-a274-e40426c099e4}, !- Schedule Type Limits Name
  ,                                       !- Interpolate to Timestep
  1,                                      !- Hour 1
  0,                                      !- Minute 1
  0.3,                                    !- Value Until Time 1
  2,                                      !- Hour 2
  0,                                      !- Minute 2
  0.25,                                   !- Value Until Time 2
  5,                                      !- Hour 3
  0,                                      !- Minute 3
  0.2,                                    !- Value Until Time 3
  6,                                      !- Hour 4
  0,                                      !- Minute 4
  0.3,                                    !- Value Until Time 4
  7,                                      !- Hour 5
  0,                                      !- Minute 5
  0.5,                                    !- Value Until Time 5
  8,                                      !- Hour 6
  0,                                      !- Minute 6
  0.6,                                    !- Value Until Time 6
  10,                                     !- Hour 7
  0,                                      !- Minute 7
  0.5,                                    !- Value Until Time 7
  18,                                     !- Hour 8
  0,                                      !- Minute 8
  0.35,                                   !- Value Until Time 8
  19,                                     !- Hour 9
  0,                                      !- Minute 9
  0.7,                                    !- Value Until Time 9
  20,                                     !- Hour 10
  0,                                      !- Minute 10
  0.9,                                    !- Value Until Time 10
  21,                                     !- Hour 11
  0,                                      !- Minute 11
  0.95,                                   !- Value Until Time 11
  22,                                     !- Hour 12
  0,                                      !- Minute 12
  0.9,                                    !- Value Until Time 12
  23,                                     !- Hour 13
  0,                                      !- Minute 13
  0.7,                                    !- Value Until Time 13
  24,                                     !- Hour 14
  0,                                      !- Minute 14
  0.4;                                    !- Value Until Time 14

OS:Schedule:Day,
  {8ee3de12-75f2-4212-9a32-95e564eaee92}, !- Handle
  0600|2200|LargeHotel|default|elec_equip Summer Design Day, !- Name
  {542336fb-47b5-4a88-a274-e40426c099e4}, !- Schedule Type Limits Name
  ,                                       !- Interpolate to Timestep
  1,                                      !- Hour 1
  0,                                      !- Minute 1
  1,                                      !- Value Until Time 1
  2,                                      !- Hour 2
  0,                                      !- Minute 2
  0.25,                                   !- Value Until Time 2
  5,                                      !- Hour 3
  0,                                      !- Minute 3
  0.2,                                    !- Value Until Time 3
  24,                                     !- Hour 4
  0,                                      !- Minute 4
  1;                                      !- Value Until Time 4

OS:Schedule:Day,
  {7e451186-d9ab-44b7-998e-efe095a243b6}, !- Handle
  0600|2200|LargeHotel|default|elec_equip Winter Design Day, !- Name
  {542336fb-47b5-4a88-a274-e40426c099e4}, !- Schedule Type Limits Name
  ,                                       !- Interpolate to Timestep
  24,                                     !- Hour 1
  0,                                      !- Minute 1
  0.2;                                    !- Value Until Time 1

OS:Schedule:Rule,
  {390abfd7-95aa-4238-863b-d47a0accf63b}, !- Handle
  0600|2200|LargeHotel|default|elec_equip |1/1-12/31|Sat Rule, !- Name
  {2e063ab7-0667-4b31-9c49-e88cbf45b35d}, !- Schedule Ruleset Name
  0,                                      !- Rule Order
  {49bacbc0-081d-43e9-87f9-74cc1266b8f7}, !- Day Schedule Name
  ,                                       !- Apply Sunday
  ,                                       !- Apply Monday
  ,                                       !- Apply Tuesday
  ,                                       !- Apply Wednesday
  ,                                       !- Apply Thursday
  ,                                       !- Apply Friday
  Yes,                                    !- Apply Saturday
  ,                                       !- Apply Holiday
  DateRange,                              !- Date Specification Type
  1,                                      !- Start Month
  1,                                      !- Start Day
  12,                                     !- End Month
  31;                                     !- End Day

OS:Schedule:Day,
  {49bacbc0-081d-43e9-87f9-74cc1266b8f7}, !- Handle
  0600|2200|LargeHotel|default|elec_equip |1/1-12/31|Sat, !- Name
  {542336fb-47b5-4a88-a274-e40426c099e4}, !- Schedule Type Limits Name
  ,                                       !- Interpolate to Timestep
  2,                                      !- Hour 1
  0,                                      !- Minute 1
  0.3,                                    !- Value Until Time 1
  6,                                      !- Hour 2
  0,                                      !- Minute 2
  0.2,                                    !- Value Until Time 2
  8,                                      !- Hour 3
  0,                                      !- Minute 3
  0.4,                                    !- Value Until Time 3
  10,                                     !- Hour 4
  0,                                      !- Minute 4
  0.5,                                    !- Value Until Time 4
  11,                                     !- Hour 5
  0,                                      !- Minute 5
  0.4,                                    !- Value Until Time 5
  18,                                     !- Hour 6
  0,                                      !- Minute 6
  0.35,                                   !- Value Until Time 6
  19,                                     !- Hour 7
  0,                                      !- Minute 7
  0.7,                                    !- Value Until Time 7
  22,                                     !- Hour 8
  0,                                      !- Minute 8
  0.8,                                    !- Value Until Time 8
  23,                                     !- Hour 9
  0,                                      !- Minute 9
  0.7,                                    !- Value Until Time 9
  24,                                     !- Hour 10
  0,                                      !- Minute 10
  0.4;                                    !- Value Until Time 10

OS:Schedule:Rule,
  {05b8ede7-ffeb-46b0-a69b-a4760032bbc6}, !- Handle
  0600|2200|LargeHotel|default|elec_equip |1/1-12/31|Sun Rule, !- Name
  {2e063ab7-0667-4b31-9c49-e88cbf45b35d}, !- Schedule Ruleset Name
  1,                                      !- Rule Order
  {f66fea23-a027-4fa3-92f1-929cd20ec99d}, !- Day Schedule Name
  Yes,                                    !- Apply Sunday
  ,                                       !- Apply Monday
  ,                                       !- Apply Tuesday
  ,                                       !- Apply Wednesday
  ,                                       !- Apply Thursday
  ,                                       !- Apply Friday
  ,                                       !- Apply Saturday