
OS:Version,
  {9f29360e-df54-423f-9175-4d86acd591fa}, !- Handle
  1.5.5;                                  !- Version Identifier

OS:ClimateZones,
  {135edfab-17e7-40db-a436-27d385a8cd6d}, !- Handle
  ,                                       !- Active Institution
  ,                                       !- Active Year
  ASHRAE,                                 !- Climate Zone Institution Name 1
  ANSI/ASHRAE Standard 169,               !- Climate Zone Document Name 1
  2006,                                   !- Climate Zone Document Year 1
  ,                                       !- Climate Zone Value 1
  CEC,                                    !- Climate Zone Institution Name 2
  California Climate Zone Descriptions,   !- Climate Zone Document Name 2
  1995,                                   !- Climate Zone Document Year 2
  ;                                       !- Climate Zone Value 2

OS:YearDescription,
  {513d8dda-86cb-442a-b01c-1f7f0e0ac70e}; !- Handle

OS:RadianceParameters,
  {270a96f1-3c86-4b75-a667-cdf22790e2c8}, !- Handle
  1,                                      !- Accumulated Rays per Record
  0,                                      !- Direct Threshold
  1,                                      !- Direct Certainty
  1,                                      !- Direct Jitter
  1,                                      !- Direct Pretest
  6,                                      !- Ambient Bounces VMX
  2,                                      !- Ambient Bounces DMX
  4050,                                   !- Ambient Divisions VMX
  512,                                    !- Ambient Divisions DMX
  256,                                    !- Ambient Supersamples
  0.001,                                  !- Limit Weight VMX
  0.001,                                  !- Limit Weight DMX
  500,                                    !- Klems Sampling Density
  146;                                    !- Sky Discretization Resolution

OS:SimulationControl,
  {2c487a4c-bac9-4ac5-b669-1e49d9da7c2b}, !- Handle
  ,                                       !- Do Zone Sizing Calculation
  ,                                       !- Do System Sizing Calculation
  ,                                       !- Do Plant Sizing Calculation
  No,                                     !- Run Simulation for Sizing Periods
  ,                                       !- Run Simulation for Weather File Run Periods
  0.04,                                   !- Loads Convergence Tolerance Value
  ,                                       !- Temperature Convergence Tolerance Value {deltaC}
  ,                                       !- Solar Distribution
  ,                                       !- Maximum Number of Warmup Days
  2;                                      !- Minimum Number of Warmup Days

OS:Sizing:Parameters,
  {dde5af6f-7923-4600-a28a-7556673a0266}, !- Handle
  1.25,                                   !- Heating Sizing Factor
  1.15;                                   !- Cooling Sizing Factor

OS:ProgramControl,
  {05027a99-f2b3-4aeb-afc6-1425fbb4371d}; !- Handle

OS:Timestep,
  {4ebc9f1e-4707-402e-9844-67eb1ffbd522}, !- Handle
  2;                                      !- Number of Timesteps per Hour

OS:OutputControl:ReportingTolerances,
  {65797aa2-06a9-45fe-b69d-bc6e060399d3}; !- Handle

OS:ConvergenceLimits,
  {9fc11aba-8822-4f3d-970c-46391ba4040d}; !- Handle

OS:ShadowCalculation,
  {ca758bea-4416-4626-9bba-3d8795c79bd6}, !- Handle
  7,                                      !- Calculation Frequency
  15000;                                  !- Maximum Figures in Shadow Overlap Calculations

OS:SurfaceConvectionAlgorithm:Inside,
  {aaabfc36-718a-4ab0-b622-f186ebb45230}, !- Handle
  TARP;                                   !- Algorithm

OS:SurfaceConvectionAlgorithm:Outside,
  {9a0a9f6f-4bbd-4b12-a121-9492a1fcd7d6}, !- Handle
  DOE-2;                                  !- Algorithm

OS:HeatBalanceAlgorithm,
  {9d93e563-e1e0-46d7-9e39-d1c8aceb7212}, !- Handle
  ConductionTransferFunction,             !- Algorithm
  200;                                    !- Surface Temperature Upper Limit {F}

OS:ZoneAirHeatBalanceAlgorithm,
  {8520d93e-310f-4696-9bcd-36228bfdd743}, !- Handle
  AnalyticalSolution;                     !- Algorithm

OS:ZoneAirContaminantBalance,
  {eb5fc3ae-fb22-4160-8fcb-3e3b22b000d3}; !- Handle

OS:ZoneCapacitanceMultiplier:ResearchSpecial,
  {4020ce4f-5a7a-4849-8028-8305d7b751b1}, !- Handle
  ,                                       !- Temperature Capacity Multiplier
  ,                                       !- Humidity Capacity Multiplier
  ;                                       !- Carbon Dioxide Capacity Multiplier

OS:RunPeriod,
  {28df894d-6af9-4fb8-8f56-df1753344aa3}, !- Handle
  Run Period 1,                           !- Name
  1,                                      !- Begin Month
  1,                                      !- Begin Day of Month
  12,                                     !- End Month
  31,                                     !- End Day of Month
  ,                                       !- Use Weather File Holidays and Special Days
  ,                                       !- Use Weather File Daylight Saving Period
  ,                                       !- Apply Weekend Holiday Rule
  ,                                       !- Use Weather File Rain Indicators
  ,                                       !- Use Weather File Snow Indicators
  ;                                       !- Number of Times Runperiod to be Repeated

OS:Building,
  {bf305633-c5a1-4881-9edf-ca5e1a8e1274}, !- Handle
  Building 1,                             !- Name
  ,                                       !- Building Sector Type
  ,                                       !- North Axis {deg}
  ,                                       !- Nominal Floor to Floor Height {m}
  ,                                       !- Space Type Name
  ,                                       !- Default Construction Set Name
  {1d20f1b4-d26b-4940-b728-2310ecd1755b}, !- Default Schedule Set Name
  ,                                       !- Standards Number of Stories
  ,                                       !- Standards Number of Above Ground Stories
  LargeHotel;                             !- Standards Building Type

OS:LifeCycleCost:Parameters,
  {231cf8a0-f0e7-4251-a99f-11f0d464e661}, !- Handle
  FEMP,                                   !- Analysis Type
  ,                                       !- Discounting Convention
  ,                                       !- Inflation Approach
  ,                                       !- Real Discount Rate
  ,                                       !- Nominal Discount Rate
  ,                                       !- Inflation
  ,                                       !- Base Date Month
  ,                                       !- Base Date Year
  ,                                       !- Service Date Month
  ,                                       !- Service Date Year
  ,                                       !- Length of Study Period in Years
  ,                                       !- Tax Rate
  ,                                       !- Depreciation Method
  Yes;                                    !- Use NIST Fuel Escalation Rates

OS:Facility,
  {3ba8e45b-b833-44eb-a723-ea6c3946dc96}; !- Handle

OS:SpaceType,
  {309b82ec-d22b-4c76-84b0-a12537d7e656}, !- Handle
  LargeHotel|BlendGst|DOE Ref 1980-2004|ASHRAE 169-2006-5A, !- Name
  {6f1d4217-d5b0-41cf-873b-f9af097851d5}, !- Default Construction Set Name
  ,                                       !- Default Schedule Set Name
  {fd3a03e9-c8b0-4774-8636-bbeb6bafc77a}, !- Group Rendering Name
  {6347849b-3561-4b3f-975f-fa2b91d0cc0a}, !- Design Specification Outdoor Air Object Name
  LargeHotel,                             !- Standards Building Type
  BlendGst;                               !- Standards Space Type

OS:Rendering:Color,
  {fd3a03e9-c8b0-4774-8636-bbeb6bafc77a}, !- Handle
  Rendering Color 1,                      !- Name
  78,                                     !- Rendering Red Value
  167,                                    !- Rendering Green Value
  222;                                    !- Rendering Blue Value

OS:SpaceType,
  {ea05d25a-60fd-4e5e-a61b-9315b4c5cc5e}, !- Handle
  LargeHotel|BlendLob|DOE Ref 1980-2004|ASHRAE 169-2006-5A, !- Name
  {6f1d4217-d5b0-41cf-873b-f9af097851d5}, !- Default Construction Set Name
  ,                                       !- Default Schedule Set Name
  {8e63266e-b4db-4219-a86a-3b6d22eb6662}, !- Group Rendering Name
  {1a42f38d-3d32-40ad-84ee-bfddd8cbdcfa}, !- Design Specification Outdoor Air Object Name
  LargeHotel,                             !- Standards Building Type
  BlendLob;                               !- Standards Space Type

OS:Rendering:Color,
  {8e63266e-b4db-4219-a86a-3b6d22eb6662}, !- Handle
  Rendering Color 2,                      !- Name
  230,                                    !- Rendering Red Value
  157,                                    !- Rendering Green Value
  120;                                    !- Rendering Blue Value

OS:SpaceType,
  {fdcc9c4a-64a9-4363-a282-101706ae867b}, !- Handle
  LargeHotel|BlendFds|DOE Ref 1980-2004|ASHRAE 169-2006-5A, !- Name
  {6f1d4217-d5b0-41cf-873b-f9af097851d5}, !- Default Construction Set Name
  ,                                       !- Default Schedule Set Name
  {7f83fd12-dd57-43cc-ba8b-c51721afd36f}, !- Group Rendering Name
  {93490021-ef61-4c77-b34b-6007f5dcc96a}, !- Design Specification Outdoor Air Object Name
  LargeHotel,                             !- Standards Building Type
  BlendFds;                               !- Standards Space Type

OS:Rendering:Color,
  {7f83fd12-dd57-43cc-ba8b-c51721afd36f}, !- Handle
  Rendering Color 3,                      !- Name
  230,                                    !- Rendering Red Value
  196,                                    !- Rendering Green Value
  120;                                    !- Rendering Blue Value

OS:SpaceType,
  {0169c46b-2374-44d4-a0f3-a6d8cd7177e6}, !- Handle
  LargeHotel|BlendMisc|DOE Ref 1980-2004|ASHRAE 169-2006-5A, !- Name
  {6f1d4217-d5b0-41cf-873b-f9af097851d5}, !- Default Construction Set Name
  ,                                       !- Default Schedule Set Name
  {046cc305-5ff8-4ffc-8aaf-4154b2ff68f5}, !- Group Rendering Name
  {3d259653-b184-4e23-a5bd-fa707ddd7440}, !- Design Specification Outdoor Air Object Name
  LargeHotel,                             !- Standards Building Type
  BlendMisc;                              !- Standards Space Type

OS:Rendering:Color,
  {046cc305-5ff8-4ffc-8aaf-4154b2ff68f5}, !- Handle
  Rendering Color 4,                      !- Name
  41,                                     !- Rendering Red Value
  31,                                     !- Rendering Green Value
  169;                                    !- Rendering Blue Value

OS:SpaceType,
  {0cb9b247-f725-48d1-aa3a-8961942d01a8}, !- Handle
  LargeHotel|Kitchen|DOE Ref 1980-2004|ASHRAE 169-2006-5A, !- Name
  {6f1d4217-d5b0-41cf-873b-f9af097851d5}, !- Default Construction Set Name
  {510df18e-f046-4f54-9a4c-33c3e5b3a756}, !- Default Schedule Set Name
  {0e724003-29b6-4f0a-87f4-80ba90f10663}, !- Group Rendering Name
  {224eb826-0424-445c-bad1-a99e6945baff}, !- Design Specification Outdoor Air Object Name
  LargeHotel,                             !- Standards Building Type
  Kitchen;                                !- Standards Space Type

OS:Rendering:Color,
  {0e724003-29b6-4f0a-87f4-80ba90f10663}, !- Handle
  Rendering Color 5,                      !- Name
  78,                                     !- Rendering Red Value
  222,                                    !- Rendering Green Value
  133;                                    !- Rendering Blue Value

OS:SpaceType,
  {71644d59-16cb-4fae-936c-da23ac9e733b}, !- Handle
  LargeHotel|Laundry|DOE Ref 1980-2004|ASHRAE 169-2006-5A, !- Name
  {6f1d4217-d5b0-41cf-873b-f9af097851d5}, !- Default Construction Set Name
  {deb42657-cef0-4bde-af09-246883a40fec}, !- Default Schedule Set Name
  {67cf6801-aa2c-4650-9853-bce58d0f0434}, !- Group Rendering Name
  {90624838-3f1a-4e64-b953-d8ea84a51f40}, !- Design Specification Outdoor Air Object Name
  LargeHotel,                             !- Standards Building Type
  Laundry;                                !- Standards Space Type

OS:Rendering:Color,
  {67cf6801-aa2c-4650-9853-bce58d0f0434}, !- Handle
  Rendering Color 6,                      !- Name
  120,                                    !- Rendering Red Value
  149,                                    !- Rendering Green Value
  230;                                    !- Rendering Blue Value

OS:Schedule:Ruleset,
  {cbe2590c-40f3-45a6-a7d1-9e35c99f44a7}, !- Handle
  0600|2200|LargeHotel|default|hoo,       !- Name
  {34feb67e-a27a-4e16-9117-6ac11db57a8a}, !- Schedule Type Limits Name
  {d71b5b25-f051-4db6-9ba1-6a0a8fc75d07}, !- Default Day Schedule Name
  {bb0f2b52-bf7d-4bc3-8a2a-e0712baa712e}, !- Summer Design Day Schedule Name
  {eef9bdc5-e788-44ea-9fed-1f7f8b17a00d}; !- Winter Design Day Schedule Name

OS:Schedule:Day,
  {d71b5b25-f051-4db6-9ba1-6a0a8fc75d07}, !- Handle
  0600|2200|LargeHotel|default|hoo Schedule Week Day, !- Name
  {34feb67e-a27a-4e16-9117-6ac11db57a8a}, !- Schedule Type Limits Name
  ,                                       !- Interpolate to Timestep
  6,                                      !- Hour 1
  0,                                      !- Minute 1
  0,                                      !- Value Until Time 1
  22,                                     !- Hour 2
  0,                                      !- Minute 2
  1,                                      !- Value Until Time 2
  24,                                     !- Hour 3
  0,                                      !- Minute 3
  0;                                      !- Value Until Time 3

OS:Schedule:Day,
  {6f980bda-e2b2-47ff-aa0f-46a0d2f130d0}, !- Handle
  Schedule Day 2,                         !- Name
  ,                                       !- Schedule Type Limits Name
  ,                                       !- Interpolate to Timestep
  24,                                     !- Hour 1
  0,                                      !- Minute 1
  0;                                      !- Value Until Time 1

OS:Schedule:Day,
  {eef9bdc5-e788-44ea-9fed-1f7f8b17a00d}, !- Handle
  0600|2200|LargeHotel|default|hoo Winter Design Day, !- Name
  {34feb67e-a27a-4e16-9117-6ac11db57a8a}, !- Schedule Type Limits Name
  ,                                       !- Interpolate to Timestep
  24,                                     !- Hour 1
  0,                                      !- Minute 1
  0;                                      !- Value Until Time 1

OS:Schedule:Day,
  {ef152ff0-bba0-4c25-8ba1-e306bc0936fa}, !- Handle
  Schedule Day 3,                         !- Name
  ,                                       !- Schedule Type Limits Name
  ,                                       !- Interpolate to Timestep
  24,                                     !- Hour 1
  0,                                      !- Minute 1
  0;                                      !- Value Until Time 1

OS:Schedule:Day,
  {bb0f2b52-bf7d-4bc3-8a2a-e0712baa712e}, !- Handle
  0600|2200|LargeHotel|default|hoo Summer Design Day, !- Name
  {34feb67e-a27a-4e16-9117-6ac11db57a8a}, !- Schedule Type Limits Name
  ,                                       !- Interpolate to Timestep
  24,                                     !- Hour 1
  0,                                      !- Minute 1
  1;                                      !- Value Until Time 1

OS:DefaultScheduleSet,
  {1d20f1b4-d26b-4940-b728-2310ecd1755b}, !- Handle
  Building Hours of Operation,            !- Name
  {cbe2590c-40f3-45a6-a7d1-9e35c99f44a7}, !- Hours of Operation Schedule Name
  ,                                       !- Number of People Schedule Name
  ,                                       !- People Activity Level Schedule Name
  ,                                       !- Lighting Schedule Name
  ,                                       !- Electric Equipment Schedule Name
  ,                                       !- Gas Equipment Schedule Name
  ,                                       !- Hot Water Equipment Schedule Name
  ,                                       !- Infiltration Schedule Name
  ,                                       !- Steam Equipment Schedule Name
  ;                                       !- Other Equipment Schedule Name

OS:ScheduleTypeLimits,
  {34feb67e-a27a-4e16-9117-6ac11db57a8a}, !- Handle
  OnOff,                                  !- Name
  0,                                      !- Lower Limit Value {BasedOnField A4}
  1,                                      !- Upper Limit Value {BasedOnField A4}
  Discrete,                               !- Numeric Type
  Availability;                           !- Unit Type

OS:Schedule:Ruleset,
  {daf8b20b-bca9-4be9-b87d-f6aa82f4c52f}, !- Handle
  0600|2200|LargeHotel|default|ext_lighting, !- Name
  {6757872c-410e-4eaf-80ed-6997d7b891cb}, !- Schedule Type Limits Name
  {4677f505-99c0-4140-b6a9-81f2ab057c7e}, !- Default Day Schedule Name
  {970c5e0f-479f-4a23-b277-17aa107e6fc2}, !- Summer Design Day Schedule Name
  {67e4bb65-ba8f-4a54-9187-6b7db505e3cb}; !- Winter Design Day Schedule Name

OS:ScheduleTypeLimits,
  {6757872c-410e-4eaf-80ed-6997d7b891cb}, !- Handle
  Lights Schedule Type Limits,            !- Name
  0,                                      !- Lower Limit Value {BasedOnField A4}
  1,                                      !- Upper Limit Value {BasedOnField A4}
  Continuous,                             !- Numeric Type
  Dimensionless;                          !- Unit Type

OS:Schedule:Day,
  {4677f505-99c0-4140-b6a9-81f2ab057c7e}, !- Handle
  0600|2200|LargeHotel|default|ext_lighting |default, !- Name
  {6757872c-410e-4eaf-80ed-6997d7b891cb}, !- Schedule Type Limits Name
  ,                                       !- Interpolate to Timestep
  24,                                     !- Hour 1
  0,                                      !- Minute 1
  1;                                      !- Value Until Time 1

OS:Schedule:Day,
  {970c5e0f-479f-4a23-b277-17aa107e6fc2}, !- Handle
  0600|2200|LargeHotel|default|ext_lighting Summer Design Day, !- Name
  {6757872c-410e-4eaf-80ed-6997d7b891cb}, !- Schedule Type Limits Name
  ,                                       !- Interpolate to Timestep
  24,                                     !- Hour 1
  0,                                      !- Minute 1
  1;                                      !- Value Until Time 1

OS:Schedule:Day,
  {67e4bb65-ba8f-4a54-9187-6b7db505e3cb}, !- Handle
  0600|2200|LargeHotel|default|ext_lighting Winter Design Day, !- Name
  {6757872c-410e-4eaf-80ed-6997d7b891cb}, !- Schedule Type Limits Name
  ,                                       !- Interpolate to Timestep
  24,                                     !- Hour 1
  0,                                      !- Minute 1
  1;                                      !- Value Until Time 1

OS:Schedule:Ruleset,
  {58546135-3254-4cfc-81c7-ae6f7910dd7c}, !- Handle
  0600|2200|LargeHotel|Corridor|htg_setpoint, !- Name
  {f89435a9-c36b-4db6-96a5-91a24422c1ed}, !- Schedule Type Limits Name
  {2524f9f1-5a24-4eb6-8b48-d810f91e4bef}, !- Default Day Schedule Name
  {c5fa7ff7-fb5d-4689-afba-9efbd50252e1}, !- Summer Design Day Schedule Name
  {a60a33eb-b554-49ed-8f50-0759722eda54}; !- Winter Design Day Schedule Name

OS:ScheduleTypeLimits,
  {f89435a9-c36b-4db6-96a5-91a24422c1ed}, !- Handle
  Thermostat Heating Setpoint Schedule Type Limits, !- Name
  0,                                      !- Lower Limit Value {BasedOnField A4}
  100,                                    !- Upper Limit Value {BasedOnField A4}
  Continuous,                             !- Numeric Type
  Temperature;                            !- Unit Type

OS:Schedule:Day,
  {2524f9f1-5a24-4eb6-8b48-d810f91e4bef}, !- Handle
  0600|2200|LargeHotel|Corridor|htg_setpoint |default, !- Name
  {f89435a9-c36b-4db6-96a5-91a24422c1ed}, !- Schedule Type Limits Name
  ,                                       !- Interpolate to Timestep
  24,                                     !- Hour 1
  0,                                      !- Minute 1
  16.0000000000001;                       !- Value Until Time 1

OS:Schedule:Day,
  {c5fa7ff7-fb5d-4689-afba-9efbd50252e1}, !- Handle
  0600|2200|LargeHotel|Corridor|htg_setpoint Summer Design Day, !- Name
  {f89435a9-c36b-4db6-96a5-91a24422c1ed}, !- Schedule Type Limits Name
  ,                                       !- Interpolate to Timestep
  24,                                     !- Hour 1
  0,                                      !- Minute 1
  16.0000000000001;                       !- Value Until Time 1

OS:Schedule:Day,
  {a60a33eb-b554-49ed-8f50-0759722eda54}, !- Handle
  0600|2200|LargeHotel|Corridor|htg_setpoint Winter Design Day, !- Name
  {f89435a9-c36b-4db6-96a5-91a24422c1ed}, !- Schedule Type Limits Name
  ,                                       !- Interpolate to Timestep
  24,                                     !- Hour 1
  0,                                      !- Minute 1
  16.0000000000001;                       !- Value Until Time 1

OS:Schedule:Ruleset,
  {68ab7817-f475-4818-904e-a087f147359f}, !- Handle
  0600|2200|LargeHotel|default|elec_equip, !- Name
  {9713530a-bd8d-47ee-989e-431e92a53de6}, !- Schedule Type Limits Name
  {61069b09-72cb-45f8-9c57-e9f72f5bcb69}, !- Default Day Schedule Name
  {1a2fa4fb-3914-4dde-969b-ba6c45ff6016}, !- Summer Design Day Schedule Name
  {a7652c4b-5f02-4fc4-883e-81c53bfb9cba}; !- Winter Design Day Schedule Name

OS:ScheduleTypeLimits,
  {9713530a-bd8d-47ee-989e-431e92a53de6}, !- Handle
  Equipment Schedule Type Limits,         !- Name
  0,                                      !- Lower Limit Value {BasedOnField A4}
  1,                                      !- Upper Limit Value {BasedOnField A4}
  Continuous,                             !- Numeric Type
  Dimensionless;                          !- Unit Type

OS:Schedule:Day,
  {61069b09-72cb-45f8-9c57-e9f72f5bcb69}, !- Handle
  0600|2200|LargeHotel|default|elec_equip |default, !- Name
  {9713530a-bd8d-47ee-989e-431e92a53de6}, !- Schedule Type Limits Name
  ,                                       !- Interpolate to Timestep
  1,                                      !- Hour 1
  0,                                      !- Minute 1
  0.3,                                    !- Value Until Time 1
  2,                                      !- Hour 2
  0,                                      !- Minute 2
  0.25,                                   !- Value Until Time 2
  5,                                      !- Hour 3
  0,                                      !- Minute 3
  0.2,                                    !- Value Until Time 3
  6,                                      !- Hour 4
  0,                                      !- Minute 4
  0.3,                                    !- Value Until Time 4
  7,                                      !- Hour 5
  0,                                      !- Minute 5
  0.5,                                    !- Value Until Time 5
  8,                                      !- Hour 6
  0,                                      !- Minute 6
  0.6,                                    !- Value Until Time 6
  10,                                     !- Hour 7
  0,                                      !- Minute 7
  0.5,                                    !- Value Until Time 7
  18,                                     !- Hour 8
  0,                                      !- Minute 8
  0.35,                                   !- Value Until Time 8
  19,                                     !- Hour 9
  0,                                      !- Minute 9
  0.7,                                    !- Value Until Time 9
  20,                                     !- Hour 10
  0,                                      !- Minute 10
  0.9,                                    !- Value Until Time 10
  21,                                     !- Hour 11
  0,                                      !- Minute 11
  0.95,                                   !- Value Until Time 11
  22,                                     !- Hour 12
  0,                                      !- Minute 12
  0.9,                                    !- Value Until Time 12
  23,                                     !- Hour 13
  0,                                      !- Minute 13
  0.7,                                    !- Value Until Time 13
  24,                                     !- Hour 14
  0,                                      !- Minute 14
  0.4;                                    !- Value Until Time 14

OS:Schedule:Day,
  {1a2fa4fb-3914-4dde-969b-ba6c45ff6016}, !- Handle
  0600|2200|LargeHotel|default|elec_equip Summer Design Day, !- Name
  {9713530a-bd8d-47ee-989e-431e92a53de6}, !- Schedule Type Limits Name
  ,                                       !- Interpolate to Timestep
  1,                                      !- Hour 1
  0,                                      !- Minute 1
  1,                                      !- Value Until Time 1
  2,                                      !- Hour 2
  0,                                      !- Minute 2
  0.25,                                   !- Value Until Time 2
  5,                                      !- Hour 3
  0,                                      !- Minute 3
  0.2,                                    !- Value Until Time 3
  24,                                     !- Hour 4
  0,                                      !- Minute 4
  1;                                      !- Value Until Time 4

OS:Schedule:Day,
  {a7652c4b-5f02-4fc4-883e-81c53bfb9cba}, !- Handle
  0600|2200|LargeHotel|default|elec_equip Winter Design Day, !- Name
  {9713530a-bd8d-47ee-989e-431e92a53de6}, !- Schedule Type Limits Name
  ,                                       !- Interpolate to Timestep
  24,                                     !- Hour 1
  0,                                      !- Minute 1
  0.2;                                    !- Value Until Time 1

OS:Schedule:Rule,
  {b7307ef1-1333-4d68-b775-abaf5049f4dd}, !- Handle
  0600|2200|LargeHotel|default|elec_equip |1/1-12/31|Sat Rule, !- Name
  {68ab7817-f475-4818-904e-a087f147359f}, !- Schedule Ruleset Name
  0,                                      !- Rule Order
  {1135ad51-5e05-456b-9c57-e4e1a11548fb}, !- Day Schedule Name
  ,                                       !- Apply Sunday
  ,                                       !- Apply Monday
  ,                                       !- Apply Tuesday
  ,                                       !- Apply Wednesday
  ,                                       !- Apply Thursday
  ,                                       !- Apply Friday
  Yes,                                    !- Apply Saturday
  ,                                       !- Apply Holiday
  DateRange,                              !- Date Specification Type
  1,                                      !- Start Month
  1,                                      !- Start Day
  12,                                     !- End Month
  31;                                     !- End Day

OS:Schedule:Day,
  {1135ad51-5e05-456b-9c57-e4e1a11548fb}, !- Handle
  0600|2200|LargeHotel|default|elec_equip |1/1-12/31|Sat, !- Name
  {9713530a-bd8d-47ee-989e-431e92a53de6}, !- Schedule Type Limits Name
  ,                                       !- Interpolate to Timestep
  2,                                      !- Hour 1
  0,                                      !- Minute 1
  0.3,                                    !- Value Until Time 1
  6,                                      !- Hour 2
  0,                                      !- Minute 2
  0.2,                                    !- Value Until Time 2
  8,                                      !- Hour 3
  0,                                      !- Minute 3
  0.4,                                    !- Value Until Time 3
  10,                                     !- Hour 4
  0,                                      !- Minute 4
  0.5,                                    !- Value Until Time 4
  11,                                     !- Hour 5
  0,                                      !- Minute 5
  0.4,                                    !- Value Until Time 5
  18,                                     !- Hour 6
  0,                                      !- Minute 6
  0.35,                                   !- Value Until Time 6
  19,                                     !- Hour 7
  0,                                      !- Minute 7
  0.7,                                    !- Value Until Time 7
  22,                                     !- Hour 8
  0,                                      !- Minute 8
  0.8,                                    !- Value Until Time 8
  23,                                     !- Hour 9
  0,                                      !- Minute 9
  0.7,                                    !- Value Until Time 9
  24,                                     !- Hour 10
  0,                                      !- Minute 10
  0.4;                                    !- Value Until Time 10

OS:Schedule:Rule,
  {481947d1-6bd9-41ba-bf5e-9fbdc1d21edf}, !- Handle
  0600|2200|LargeHotel|default|elec_equip |1/1-12/31|Sun Rule, !- Name
  {68ab7817-f475-4818-904e-a087f147359f}, !- Schedule Ruleset Name
  1,                                      !- Rule Order
  {c3c37eed-5ab3-426d-ab0f-ccd7421ef017}, !- Day Schedule Name
  Yes,                                    !- Apply Sunday
  ,                                       !- Apply Monday
  ,                                       !- Apply Tuesday
  ,                                       !- Apply Wednesday
  ,                                       !- Apply Thursday
  ,                                       !- Apply Friday
  ,                                       !- Apply Saturday