
OS:Version,
  {8245ab25-86b4-4840-8526-f355df1619d2}, !- Handle
  1.5.5;                                  !- Version Identifier

OS:ClimateZones,
  {135edfab-17e7-40db-a436-27d385a8cd6d}, !- Handle
  ,                                       !- Active Institution
  ,                                       !- Active Year
  ASHRAE,                                 !- Climate Zone Institution Name 1
  ANSI/ASHRAE Standard 169,               !- Climate Zone Document Name 1
  2006,                                   !- Climate Zone Document Year 1
  ,                                       !- Climate Zone Value 1
  CEC,                                    !- Climate Zone Institution Name 2
  California Climate Zone Descriptions,   !- Climate Zone Document Name 2
  1995,                                   !- Climate Zone Document Year 2
  ;                                       !- Climate Zone Value 2

OS:YearDescription,
  {513d8dda-86cb-442a-b01c-1f7f0e0ac70e}; !- Handle

OS:RadianceParameters,
  {270a96f1-3c86-4b75-a667-cdf22790e2c8}, !- Handle
  1,                                      !- Accumulated Rays per Record
  0,                                      !- Direct Threshold
  1,                                      !- Direct Certainty
  1,                                      !- Direct Jitter
  1,                                      !- Direct Pretest
  6,                                      !- Ambient Bounces VMX
  2,                                      !- Ambient Bounces DMX
  4050,                                   !- Ambient Divisions VMX
  512,                                    !- Ambient Divisions DMX
  256,                                    !- Ambient Supersamples
  0.001,                                  !- Limit Weight VMX
  0.001,                                  !- Limit Weight DMX
  500,                                    !- Klems Sampling Density
  146;                                    !- Sky Discretization Resolution

OS:SimulationControl,
  {2c487a4c-bac9-4ac5-b669-1e49d9da7c2b}, !- Handle
  ,                                       !- Do Zone Sizing Calculation
  ,                                       !- Do System Sizing Calculation
  ,                                       !- Do Plant Sizing Calculation
  No,                                     !- Run Simulation for Sizing Periods
  ,                                       !- Run Simulation for Weather File Run Periods
  0.04,                                   !- Loads Convergence Tolerance Value
  ,                                       !- Temperature Convergence Tolerance Value {deltaC}
  ,                                       !- Solar Distribution
  ,                                       !- Maximum Number of Warmup Days
  2;                                      !- Minimum Number of Warmup Days

OS:Sizing:Parameters,
  {dde5af6f-7923-4600-a28a-7556673a0266}, !- Handle
  1.25,                                   !- Heating Sizing Factor
  1.15;                                   !- Cooling Sizing Factor

OS:ProgramControl,
  {05027a99-f2b3-4aeb-afc6-1425fbb4371d}; !- Handle

OS:Timestep,
  {4ebc9f1e-4707-402e-9844-67eb1ffbd522}, !- Handle
  2;                                      !- Number of Timesteps per Hour

OS:OutputControl:ReportingTolerances,
  {65797aa2-06a9-45fe-b69d-bc6e060399d3}; !- Handle

OS:ConvergenceLimits,
  {9fc11aba-8822-4f3d-970c-46391ba4040d}; !- Handle

OS:ShadowCalculation,
  {ca758bea-4416-4626-9bba-3d8795c79bd6}, !- Handle
  7,                                      !- Calculation Frequency
  15000;                                  !- Maximum Figures in Shadow Overlap Calculations

OS:SurfaceConvectionAlgorithm:Inside,
  {aaabfc36-718a-4ab0-b622-f186ebb45230}, !- Handle
  TARP;                                   !- Algorithm

OS:SurfaceConvectionAlgorithm:Outside,
  {9a0a9f6f-4bbd-4b12-a121-9492a1fcd7d6}, !- Handle
  DOE-2;                                  !- Algorithm

OS:HeatBalanceAlgorithm,
  {9d93e563-e1e0-46d7-9e39-d1c8aceb7212}, !- Handle
  ConductionTransferFunction,             !- Algorithm
  200;                                    !- Surface Temperature Upper Limit {F}

OS:ZoneAirHeatBalanceAlgorithm,
  {8520d93e-310f-4696-9bcd-36228bfdd743}, !- Handle
  AnalyticalSolution;                     !- Algorithm

OS:ZoneAirContaminantBalance,
  {eb5fc3ae-fb22-4160-8fcb-3e3b22b000d3}; !- Handle

OS:ZoneCapacitanceMultiplier:ResearchSpecial,
  {4020ce4f-5a7a-4849-8028-8305d7b751b1}, !- Handle
  ,                                       !- Temperature Capacity Multiplier
  ,                                       !- Humidity Capacity Multiplier
  ;                                       !- Carbon Dioxide Capacity Multiplier

OS:RunPeriod,
  {28df894d-6af9-4fb8-8f56-df1753344aa3}, !- Handle
  Run Period 1,                           !- Name
  1,                                      !- Begin Month
  1,                                      !- Begin Day of Month
  12,                                     !- End Month
  31,                                     !- End Day of Month
  ,                                       !- Use Weather File Holidays and Special Days
  ,                                       !- Use Weather File Daylight Saving Period
  ,                                       !- Apply Weekend Holiday Rule
  ,                                       !- Use Weather File Rain Indicators
  ,                                       !- Use Weather File Snow Indicators
  ;                                       !- Number of Times Runperiod to be Repeated

OS:Building,
  {bf305633-c5a1-4881-9edf-ca5e1a8e1274}, !- Handle
  Building 1,                             !- Name
  ,                                       !- Building Sector Type
  ,                                       !- North Axis {deg}
  ,                                       !- Nominal Floor to Floor Height {m}
  ,                                       !- Space Type Name
  ,                                       !- Default Construction Set Name
  {47243005-a934-4b30-9efc-54b51eed7956}, !- Default Schedule Set Name
  ,                                       !- Standards Number of Stories
  ,                                       !- Standards Number of Above Ground Stories
  LargeHotel;                             !- Standards Building Type

OS:LifeCycleCost:Parameters,
  {231cf8a0-f0e7-4251-a99f-11f0d464e661}, !- Handle
  FEMP,                                   !- Analysis Type
  ,                                       !- Discounting Convention
  ,                                       !- Inflation Approach
  ,                                       !- Real Discount Rate
  ,                                       !- Nominal Discount Rate
  ,                                       !- Inflation
  ,                                       !- Base Date Month
  ,                                       !- Base Date Year
  ,                                       !- Service Date Month
  ,                                       !- Service Date Year
  ,                                       !- Length of Study Period in Years
  ,                                       !- Tax Rate
  ,                                       !- Depreciation Method
  Yes;                                    !- Use NIST Fuel Escalation Rates

OS:Facility,
  {3ba8e45b-b833-44eb-a723-ea6c3946dc96}; !- Handle

OS:SpaceType,
  {5acd6601-9574-4816-b8ff-55138d2a6f2c}, !- Handle
  LargeHotel|BlendGst|DOE Ref 2004|ASHRAE 169-2006-5A, !- Name
  {98b961f5-4e64-4c99-9bb5-fa9805f57f77}, !- Default Construction Set Name
  ,                                       !- Default Schedule Set Name
  {760b841c-4c5b-4b31-81c6-ea2041fa7ff0}, !- Group Rendering Name
  {fd352ea3-06ae-435a-a318-b128fab1e4f6}, !- Design Specification Outdoor Air Object Name
  LargeHotel,                             !- Standards Building Type
  BlendGst;                               !- Standards Space Type

OS:Rendering:Color,
  {760b841c-4c5b-4b31-81c6-ea2041fa7ff0}, !- Handle
  Rendering Color 1,                      !- Name
  78,                                     !- Rendering Red Value
  167,                                    !- Rendering Green Value
  222;                                    !- Rendering Blue Value

OS:SpaceType,
  {46897d9f-113f-49a5-9e2b-ec03043d07f8}, !- Handle
  LargeHotel|BlendLob|DOE Ref 2004|ASHRAE 169-2006-5A, !- Name
  {98b961f5-4e64-4c99-9bb5-fa9805f57f77}, !- Default Construction Set Name
  ,                                       !- Default Schedule Set Name
  {ace438d2-5b29-498f-97d1-ebc1cfbfc367}, !- Group Rendering Name
  {80f24bc8-d275-4680-8080-8b56eb09ca68}, !- Design Specification Outdoor Air Object Name
  LargeHotel,                             !- Standards Building Type
  BlendLob;                               !- Standards Space Type

OS:Rendering:Color,
  {ace438d2-5b29-498f-97d1-ebc1cfbfc367}, !- Handle
  Rendering Color 2,                      !- Name
  230,                                    !- Rendering Red Value
  157,                                    !- Rendering Green Value
  120;                                    !- Rendering Blue Value

OS:SpaceType,
  {262a0975-d153-4113-af62-4da0fd876ed5}, !- Handle
  LargeHotel|BlendFds|DOE Ref 2004|ASHRAE 169-2006-5A, !- Name
  {98b961f5-4e64-4c99-9bb5-fa9805f57f77}, !- Default Construction Set Name
  ,                                       !- Default Schedule Set Name
  {4ade5b60-8f6e-4e92-8e3d-226a6a3c7a6b}, !- Group Rendering Name
  {d1ba0f45-ed0c-47b5-a7ef-a5662fc8fb07}, !- Design Specification Outdoor Air Object Name
  LargeHotel,                             !- Standards Building Type
  BlendFds;                               !- Standards Space Type

OS:Rendering:Color,
  {4ade5b60-8f6e-4e92-8e3d-226a6a3c7a6b}, !- Handle
  Rendering Color 3,                      !- Name
  230,                                    !- Rendering Red Value
  196,                                    !- Rendering Green Value
  120;                                    !- Rendering Blue Value

OS:SpaceType,
  {189b20a4-c205-42f0-8aae-84ec35796e36}, !- Handle
  LargeHotel|BlendMisc|DOE Ref 2004|ASHRAE 169-2006-5A, !- Name
  {98b961f5-4e64-4c99-9bb5-fa9805f57f77}, !- Default Construction Set Name
  ,                                       !- Default Schedule Set Name
  {0c92802d-f44f-4137-b140-d39f4542f87c}, !- Group Rendering Name
  {7090e747-7303-48b9-97a8-847e866063e6}, !- Design Specification Outdoor Air Object Name
  LargeHotel,                             !- Standards Building Type
  BlendMisc;                              !- Standards Space Type

OS:Rendering:Color,
  {0c92802d-f44f-4137-b140-d39f4542f87c}, !- Handle
  Rendering Color 4,                      !- Name
  41,                                     !- Rendering Red Value
  31,                                     !- Rendering Green Value
  169;                                    !- Rendering Blue Value

OS:SpaceType,
  {4619c809-f8e8-4735-a5a3-f9098b60bee5}, !- Handle
  LargeHotel|Kitchen|DOE Ref 2004|ASHRAE 169-2006-5A, !- Name
  {98b961f5-4e64-4c99-9bb5-fa9805f57f77}, !- Default Construction Set Name
  {b6cc6a9f-1682-45bf-8c23-30272b9a50d3}, !- Default Schedule Set Name
  {ec759431-cf60-44f1-a236-4e421aa5ff13}, !- Group Rendering Name
  {be8f4307-d768-4210-a915-bacf5f6ed59a}, !- Design Specification Outdoor Air Object Name
  LargeHotel,                             !- Standards Building Type
  Kitchen;                                !- Standards Space Type

OS:Rendering:Color,
  {ec759431-cf60-44f1-a236-4e421aa5ff13}, !- Handle
  Rendering Color 5,                      !- Name
  78,                                     !- Rendering Red Value
  222,                                    !- Rendering Green Value
  133;                                    !- Rendering Blue Value

OS:SpaceType,
  {131575ba-09ff-4f32-a46b-a5e290e66e0e}, !- Handle
  LargeHotel|Laundry|DOE Ref 2004|ASHRAE 169-2006-5A, !- Name
  {98b961f5-4e64-4c99-9bb5-fa9805f57f77}, !- Default Construction Set Name
  {9d6300e8-4628-488d-b1f0-3a58892c4135}, !- Default Schedule Set Name
  {efba3cef-f8ef-40bc-b80d-9ccee0943ae4}, !- Group Rendering Name
  {6c4f3d9e-ec2e-4fb8-a56c-8e0455351ab2}, !- Design Specification Outdoor Air Object Name
  LargeHotel,                             !- Standards Building Type
  Laundry;                                !- Standards Space Type

OS:Rendering:Color,
  {efba3cef-f8ef-40bc-b80d-9ccee0943ae4}, !- Handle
  Rendering Color 6,                      !- Name
  120,                                    !- Rendering Red Value
  149,                                    !- Rendering Green Value
  230;                                    !- Rendering Blue Value

OS:Schedule:Ruleset,
  {7facff24-1693-4137-a10e-976ca9863bc4}, !- Handle
  0600|2200|LargeHotel|default|hoo,       !- Name
  {0dba1eac-28cf-4fe3-bb22-ee4b66db73f1}, !- Schedule Type Limits Name
  {1e5a1a52-0f94-4d14-9759-3f10c5f03ca9}, !- Default Day Schedule Name
  {0ab857fa-63bc-4102-aab9-a555ed5c426a}, !- Summer Design Day Schedule Name
  {e1c8bdc4-0465-46ea-aac8-839700c4284e}; !- Winter Design Day Schedule Name

OS:Schedule:Day,
  {1e5a1a52-0f94-4d14-9759-3f10c5f03ca9}, !- Handle
  0600|2200|LargeHotel|default|hoo Schedule Week Day, !- Name
  {0dba1eac-28cf-4fe3-bb22-ee4b66db73f1}, !- Schedule Type Limits Name
  ,                                       !- Interpolate to Timestep
  6,                                      !- Hour 1
  0,                                      !- Minute 1
  0,                                      !- Value Until Time 1
  22,                                     !- Hour 2
  0,                                      !- Minute 2
  1,                                      !- Value Until Time 2
  24,                                     !- Hour 3
  0,                                      !- Minute 3
  0;                                      !- Value Until Time 3

OS:Schedule:Day,
  {07183dd8-51f2-4cc2-8ef2-0f285b30e0df}, !- Handle
  Schedule Day 2,                         !- Name
  ,                                       !- Schedule Type Limits Name
  ,                                       !- Interpolate to Timestep
  24,                                     !- Hour 1
  0,                                      !- Minute 1
  0;                                      !- Value Until Time 1

OS:Schedule:Day,
  {e1c8bdc4-0465-46ea-aac8-839700c4284e}, !- Handle
  0600|2200|LargeHotel|default|hoo Winter Design Day, !- Name
  {0dba1eac-28cf-4fe3-bb22-ee4b66db73f1}, !- Schedule Type Limits Name
  ,                                       !- Interpolate to Timestep
  24,                                     !- Hour 1
  0,                                      !- Minute 1
  0;                                      !- Value Until Time 1

OS:Schedule:Day,
  {ce9f59e0-457b-410e-8992-633d1e749985}, !- Handle
  Schedule Day 3,                         !- Name
  ,                                       !- Schedule Type Limits Name
  ,                                       !- Interpolate to Timestep
  24,                                     !- Hour 1
  0,                                      !- Minute 1
  0;                                      !- Value Until Time 1

OS:Schedule:Day,
  {0ab857fa-63bc-4102-aab9-a555ed5c426a}, !- Handle
  0600|2200|LargeHotel|default|hoo Summer Design Day, !- Name
  {0dba1eac-28cf-4fe3-bb22-ee4b66db73f1}, !- Schedule Type Limits Name
  ,                                       !- Interpolate to Timestep
  24,                                     !- Hour 1
  0,                                      !- Minute 1
  1;                                      !- Value Until Time 1

OS:DefaultScheduleSet,
  {47243005-a934-4b30-9efc-54b51eed7956}, !- Handle
  Building Hours of Operation,            !- Name
  {7facff24-1693-4137-a10e-976ca9863bc4}, !- Hours of Operation Schedule Name
  ,                                       !- Number of People Schedule Name
  ,                                       !- People Activity Level Schedule Name
  ,                                       !- Lighting Schedule Name
  ,                                       !- Electric Equipment Schedule Name
  ,                                       !- Gas Equipment Schedule Name
  ,                                       !- Hot Water Equipment Schedule Name
  ,                                       !- Infiltration Schedule Name
  ,                                       !- Steam Equipment Schedule Name
  ;                                       !- Other Equipment Schedule Name

OS:ScheduleTypeLimits,
  {0dba1eac-28cf-4fe3-bb22-ee4b66db73f1}, !- Handle
  OnOff,                                  !- Name
  0,                                      !- Lower Limit Value {BasedOnField A4}
  1,                                      !- Upper Limit Value {BasedOnField A4}
  Discrete,                               !- Numeric Type
  Availability;                           !- Unit Type

OS:Schedule:Ruleset,
  {fb2fa008-7cbe-4206-86d7-b160bb267c42}, !- Handle
  0600|2200|LargeHotel|default|ext_lighting, !- Name
  {1c49964c-3eed-4d10-a859-6ae81a714915}, !- Schedule Type Limits Name
  {4f6f05bb-5349-4a11-af94-35c37c103b89}, !- Default Day Schedule Name
  {f86b9b1c-ef07-4202-a3de-01f08be02380}, !- Summer Design Day Schedule Name
  {d7e1538d-cabb-4916-a176-57bf7d7f9a06}; !- Winter Design Day Schedule Name

OS:ScheduleTypeLimits,
  {1c49964c-3eed-4d10-a859-6ae81a714915}, !- Handle
  Lights Schedule Type Limits,            !- Name
  0,                                      !- Lower Limit Value {BasedOnField A4}
  1,                                      !- Upper Limit Value {BasedOnField A4}
  Continuous,                             !- Numeric Type
  Dimensionless;                          !- Unit Type

OS:Schedule:Day,
  {4f6f05bb-5349-4a11-af94-35c37c103b89}, !- Handle
  0600|2200|LargeHotel|default|ext_lighting |default, !- Name
  {1c49964c-3eed-4d10-a859-6ae81a714915}, !- Schedule Type Limits Name
  ,                                       !- Interpolate to Timestep
  24,                                     !- Hour 1
  0,                                      !- Minute 1
  1;                                      !- Value Until Time 1

OS:Schedule:Day,
  {f86b9b1c-ef07-4202-a3de-01f08be02380}, !- Handle
  0600|2200|LargeHotel|default|ext_lighting Summer Design Day, !- Name
  {1c49964c-3eed-4d10-a859-6ae81a714915}, !- Schedule Type Limits Name
  ,                                       !- Interpolate to Timestep
  24,                                     !- Hour 1
  0,                                      !- Minute 1
  1;                                      !- Value Until Time 1

OS:Schedule:Day,
  {d7e1538d-cabb-4916-a176-57bf7d7f9a06}, !- Handle
  0600|2200|LargeHotel|default|ext_lighting Winter Design Day, !- Name
  {1c49964c-3eed-4d10-a859-6ae81a714915}, !- Schedule Type Limits Name
  ,                                       !- Interpolate to Timestep
  24,                                     !- Hour 1
  0,                                      !- Minute 1
  1;                                      !- Value Until Time 1

OS:Schedule:Ruleset,
  {5bef03c3-d705-423c-b3b5-cc043d311e05}, !- Handle
  0600|2200|LargeHotel|Corridor|htg_setpoint, !- Name
  {a731ed3c-3d1b-4b98-9242-0afbbd1aee21}, !- Schedule Type Limits Name
  {3a0e5c88-27dc-4b88-989e-4f98f27cf9ac}, !- Default Day Schedule Name
  {e5a6ba7e-fb9f-4cf5-acf9-652cf2e8c964}, !- Summer Design Day Schedule Name
  {8a5e4622-8955-41dd-89a7-084a0f36dfa5}; !- Winter Design Day Schedule Name

OS:ScheduleTypeLimits,
  {a731ed3c-3d1b-4b98-9242-0afbbd1aee21}, !- Handle
  Thermostat Heating Setpoint Schedule Type Limits, !- Name
  0,                                      !- Lower Limit Value {BasedOnField A4}
  100,                                    !- Upper Limit Value {BasedOnField A4}
  Continuous,                             !- Numeric Type
  Temperature;                            !- Unit Type

OS:Schedule:Day,
  {3a0e5c88-27dc-4b88-989e-4f98f27cf9ac}, !- Handle
  0600|2200|LargeHotel|Corridor|htg_setpoint |default, !- Name
  {a731ed3c-3d1b-4b98-9242-0afbbd1aee21}, !- Schedule Type Limits Name
  ,                                       !- Interpolate to Timestep
  24,                                     !- Hour 1
  0,                                      !- Minute 1
  16.0000000000001;                       !- Value Until Time 1

OS:Schedule:Day,
  {e5a6ba7e-fb9f-4cf5-acf9-652cf2e8c964}, !- Handle
  0600|2200|LargeHotel|Corridor|htg_setpoint Summer Design Day, !- Name
  {a731ed3c-3d1b-4b98-9242-0afbbd1aee21}, !- Schedule Type Limits Name
  ,                                       !- Interpolate to Timestep
  24,                                     !- Hour 1
  0,                                      !- Minute 1
  16.0000000000001;                       !- Value Until Time 1

OS:Schedule:Day,
  {8a5e4622-8955-41dd-89a7-084a0f36dfa5}, !- Handle
  0600|2200|LargeHotel|Corridor|htg_setpoint Winter Design Day, !- Name
  {a731ed3c-3d1b-4b98-9242-0afbbd1aee21}, !- Schedule Type Limits Name
  ,                                       !- Interpolate to Timestep
  24,                                     !- Hour 1
  0,                                      !- Minute 1
  16.0000000000001;                       !- Value Until Time 1

OS:Schedule:Ruleset,
  {0ad901dd-4172-4ea6-a05c-a802ed3e4404}, !- Handle
  0600|2200|LargeHotel|default|elec_equip, !- Name
  {ccd8f5a3-0fce-4371-bc8c-fc229c823ce4}, !- Schedule Type Limits Name
  {ec05ac8f-c2e1-4891-985c-120087bcc9cf}, !- Default Day Schedule Name
  {abe7f193-75cf-48a8-8c79-8afb3bd68837}, !- Summer Design Day Schedule Name
  {885624fb-89a6-4009-a065-48ba5541352a}; !- Winter Design Day Schedule Name

OS:ScheduleTypeLimits,
  {ccd8f5a3-0fce-4371-bc8c-fc229c823ce4}, !- Handle
  Equipment Schedule Type Limits,         !- Name
  0,                                      !- Lower Limit Value {BasedOnField A4}
  1,                                      !- Upper Limit Value {BasedOnField A4}
  Continuous,                             !- Numeric Type
  Dimensionless;                          !- Unit Type

OS:Schedule:Day,
  {ec05ac8f-c2e1-4891-985c-120087bcc9cf}, !- Handle
  0600|2200|LargeHotel|default|elec_equip |default, !- Name
  {ccd8f5a3-0fce-4371-bc8c-fc229c823ce4}, !- Schedule Type Limits Name
  ,                                       !- Interpolate to Timestep
  1,                                      !- Hour 1
  0,                                      !- Minute 1
  0.3,                                    !- Value Until Time 1
  2,                                      !- Hour 2
  0,                                      !- Minute 2
  0.25,                                   !- Value Until Time 2
  5,                                      !- Hour 3
  0,                                      !- Minute 3
  0.2,                                    !- Value Until Time 3
  6,                                      !- Hour 4
  0,                                      !- Minute 4
  0.3,                                    !- Value Until Time 4
  7,                                      !- Hour 5
  0,                                      !- Minute 5
  0.5,                                    !- Value Until Time 5
  8,                                      !- Hour 6
  0,                                      !- Minute 6
  0.6,                                    !- Value Until Time 6
  10,                                     !- Hour 7
  0,                                      !- Minute 7
  0.5,                                    !- Value Until Time 7
  18,                                     !- Hour 8
  0,                                      !- Minute 8
  0.35,                                   !- Value Until Time 8
  19,                                     !- Hour 9
  0,                                      !- Minute 9
  0.7,                                    !- Value Until Time 9
  20,                                     !- Hour 10
  0,                                      !- Minute 10
  0.9,                                    !- Value Until Time 10
  21,                                     !- Hour 11
  0,                                      !- Minute 11
  0.95,                                   !- Value Until Time 11
  22,                                     !- Hour 12
  0,                                      !- Minute 12
  0.9,                                    !- Value Until Time 12
  23,                                     !- Hour 13
  0,                                      !- Minute 13
  0.7,                                    !- Value Until Time 13
  24,                                     !- Hour 14
  0,                                      !- Minute 14
  0.4;                                    !- Value Until Time 14

OS:Schedule:Day,
  {abe7f193-75cf-48a8-8c79-8afb3bd68837}, !- Handle
  0600|2200|LargeHotel|default|elec_equip Summer Design Day, !- Name
  {ccd8f5a3-0fce-4371-bc8c-fc229c823ce4}, !- Schedule Type Limits Name
  ,                                       !- Interpolate to Timestep
  1,                                      !- Hour 1
  0,                                      !- Minute 1
  1,                                      !- Value Until Time 1
  2,                                      !- Hour 2
  0,                                      !- Minute 2
  0.25,                                   !- Value Until Time 2
  5,                                      !- Hour 3
  0,                                      !- Minute 3
  0.2,                                    !- Value Until Time 3
  24,                                     !- Hour 4
  0,                                      !- Minute 4
  1;                                      !- Value Until Time 4

OS:Schedule:Day,
  {885624fb-89a6-4009-a065-48ba5541352a}, !- Handle
  0600|2200|LargeHotel|default|elec_equip Winter Design Day, !- Name
  {ccd8f5a3-0fce-4371-bc8c-fc229c823ce4}, !- Schedule Type Limits Name
  ,                                       !- Interpolate to Timestep
  24,                                     !- Hour 1
  0,                                      !- Minute 1
  0.2;                                    !- Value Until Time 1

OS:Schedule:Rule,
  {bc174ab6-0561-4a5b-82c6-5f76a0bc4064}, !- Handle
  0600|2200|LargeHotel|default|elec_equip |1/1-12/31|Sat Rule, !- Name
  {0ad901dd-4172-4ea6-a05c-a802ed3e4404}, !- Schedule Ruleset Name
  0,                                      !- Rule Order
  {2d4b42d5-13ad-4de1-a9b1-57f46219000b}, !- Day Schedule Name
  ,                                       !- Apply Sunday
  ,                                       !- Apply Monday
  ,                                       !- Apply Tuesday
  ,                                       !- Apply Wednesday
  ,                                       !- Apply Thursday
  ,                                       !- Apply Friday
  Yes,                                    !- Apply Saturday
  ,                                       !- Apply Holiday
  DateRange,                              !- Date Specification Type
  1,                                      !- Start Month
  1,                                      !- Start Day
  12,                                     !- End Month
  31;                                     !- End Day

OS:Schedule:Day,
  {2d4b42d5-13ad-4de1-a9b1-57f46219000b}, !- Handle
  0600|2200|LargeHotel|default|elec_equip |1/1-12/31|Sat, !- Name
  {ccd8f5a3-0fce-4371-bc8c-fc229c823ce4}, !- Schedule Type Limits Name
  ,                                       !- Interpolate to Timestep
  2,                                      !- Hour 1
  0,                                      !- Minute 1
  0.3,                                    !- Value Until Time 1
  6,                                      !- Hour 2
  0,                                      !- Minute 2
  0.2,                                    !- Value Until Time 2
  8,                                      !- Hour 3
  0,                                      !- Minute 3
  0.4,                                    !- Value Until Time 3
  10,                                     !- Hour 4
  0,                                      !- Minute 4
  0.5,                                    !- Value Until Time 4
  11,                                     !- Hour 5
  0,                                      !- Minute 5
  0.4,                                    !- Value Until Time 5
  18,                                     !- Hour 6
  0,                                      !- Minute 6
  0.35,                                   !- Value Until Time 6
  19,                                     !- Hour 7
  0,                                      !- Minute 7
  0.7,                                    !- Value Until Time 7
  22,                                     !- Hour 8
  0,                                      !- Minute 8
  0.8,                                    !- Value Until Time 8
  23,                                     !- Hour 9
  0,                                      !- Minute 9
  0.7,                                    !- Value Until Time 9
  24,                                     !- Hour 10
  0,                                      !- Minute 10
  0.4;                                    !- Value Until Time 10

OS:Schedule:Rule,
  {0fbda444-231b-4e37-a468-41e5d0db48cc}, !- Handle
  0600|2200|LargeHotel|default|elec_equip |1/1-12/31|Sun Rule, !- Name
  {0ad901dd-4172-4ea6-a05c-a802ed3e4404}, !- Schedule Ruleset Name
  1,                                      !- Rule Order
  {953351df-7364-4100-820e-4ce2df25febb}, !- Day Schedule Name
  Yes,                                    !- Apply Sunday
  ,                                       !- Apply Monday
  ,                                       !- Apply Tuesday
  ,                                       !- Apply Wednesday
  ,                                       !- Apply Thursday
  ,                                       !- Apply Friday
  ,                                       !- Apply Saturday