
OS:Version,
  {596ea367-1266-4733-a0ac-df30e960ab21}, !- Handle
  1.5.5;                                  !- Version Identifier

OS:ClimateZones,
  {135edfab-17e7-40db-a436-27d385a8cd6d}, !- Handle
  ,                                       !- Active Institution
  ,                                       !- Active Year
  ASHRAE,                                 !- Climate Zone Institution Name 1
  ANSI/ASHRAE Standard 169,               !- Climate Zone Document Name 1
  2006,                                   !- Climate Zone Document Year 1
  ,                                       !- Climate Zone Value 1
  CEC,                                    !- Climate Zone Institution Name 2
  California Climate Zone Descriptions,   !- Climate Zone Document Name 2
  1995,                                   !- Climate Zone Document Year 2
  ;                                       !- Climate Zone Value 2

OS:YearDescription,
  {513d8dda-86cb-442a-b01c-1f7f0e0ac70e}; !- Handle

OS:RadianceParameters,
  {270a96f1-3c86-4b75-a667-cdf22790e2c8}, !- Handle
  1,                                      !- Accumulated Rays per Record
  0,                                      !- Direct Threshold
  1,                                      !- Direct Certainty
  1,                                      !- Direct Jitter
  1,                                      !- Direct Pretest
  6,                                      !- Ambient Bounces VMX
  2,                                      !- Ambient Bounces DMX
  4050,                                   !- Ambient Divisions VMX
  512,                                    !- Ambient Divisions DMX
  256,                                    !- Ambient Supersamples
  0.001,                                  !- Limit Weight VMX
  0.001,                                  !- Limit Weight DMX
  500,                                    !- Klems Sampling Density
  146;                                    !- Sky Discretization Resolution

OS:SimulationControl,
  {2c487a4c-bac9-4ac5-b669-1e49d9da7c2b}, !- Handle
  ,                                       !- Do Zone Sizing Calculation
  ,                                       !- Do System Sizing Calculation
  ,                                       !- Do Plant Sizing Calculation
  No,                                     !- Run Simulation for Sizing Periods
  ,                                       !- Run Simulation for Weather File Run Periods
  0.04,                                   !- Loads Convergence Tolerance Value
  ,                                       !- Temperature Convergence Tolerance Value {deltaC}
  ,                                       !- Solar Distribution
  ,                                       !- Maximum Number of Warmup Days
  2;                                      !- Minimum Number of Warmup Days

OS:Sizing:Parameters,
  {dde5af6f-7923-4600-a28a-7556673a0266}, !- Handle
  1.25,                                   !- Heating Sizing Factor
  1.15;                                   !- Cooling Sizing Factor

OS:ProgramControl,
  {05027a99-f2b3-4aeb-afc6-1425fbb4371d}; !- Handle

OS:Timestep,
  {4ebc9f1e-4707-402e-9844-67eb1ffbd522}, !- Handle
  2;                                      !- Number of Timesteps per Hour

OS:OutputControl:ReportingTolerances,
  {65797aa2-06a9-45fe-b69d-bc6e060399d3}; !- Handle

OS:ConvergenceLimits,
  {9fc11aba-8822-4f3d-970c-46391ba4040d}; !- Handle

OS:ShadowCalculation,
  {ca758bea-4416-4626-9bba-3d8795c79bd6}, !- Handle
  7,                                      !- Calculation Frequency
  15000;                                  !- Maximum Figures in Shadow Overlap Calculations

OS:SurfaceConvectionAlgorithm:Inside,
  {aaabfc36-718a-4ab0-b622-f186ebb45230}, !- Handle
  TARP;                                   !- Algorithm

OS:SurfaceConvectionAlgorithm:Outside,
  {9a0a9f6f-4bbd-4b12-a121-9492a1fcd7d6}, !- Handle
  DOE-2;                                  !- Algorithm

OS:HeatBalanceAlgorithm,
  {9d93e563-e1e0-46d7-9e39-d1c8aceb7212}, !- Handle
  ConductionTransferFunction,             !- Algorithm
  200;                                    !- Surface Temperature Upper Limit {F}

OS:ZoneAirHeatBalanceAlgorithm,
  {8520d93e-310f-4696-9bcd-36228bfdd743}, !- Handle
  AnalyticalSolution;                     !- Algorithm

OS:ZoneAirContaminantBalance,
  {eb5fc3ae-fb22-4160-8fcb-3e3b22b000d3}; !- Handle

OS:ZoneCapacitanceMultiplier:ResearchSpecial,
  {4020ce4f-5a7a-4849-8028-8305d7b751b1}, !- Handle
  ,                                       !- Temperature Capacity Multiplier
  ,                                       !- Humidity Capacity Multiplier
  ;                                       !- Carbon Dioxide Capacity Multiplier

OS:RunPeriod,
  {28df894d-6af9-4fb8-8f56-df1753344aa3}, !- Handle
  Run Period 1,                           !- Name
  1,                                      !- Begin Month
  1,                                      !- Begin Day of Month
  12,                                     !- End Month
  31,                                     !- End Day of Month
  ,                                       !- Use Weather File Holidays and Special Days
  ,                                       !- Use Weather File Daylight Saving Period
  ,                                       !- Apply Weekend Holiday Rule
  ,                                       !- Use Weather File Rain Indicators
  ,                                       !- Use Weather File Snow Indicators
  ;                                       !- Number of Times Runperiod to be Repeated

OS:Building,
  {bf305633-c5a1-4881-9edf-ca5e1a8e1274}, !- Handle
  Building 1,                             !- Name
  ,                                       !- Building Sector Type
  ,                                       !- North Axis {deg}
  ,                                       !- Nominal Floor to Floor Height {m}
  ,                                       !- Space Type Name
  ,                                       !- Default Construction Set Name
  {ece66675-8d83-42f0-b078-34e66d38ee28}, !- Default Schedule Set Name
  ,                                       !- Standards Number of Stories
  ,                                       !- Standards Number of Above Ground Stories
  MidriseApartment;                       !- Standards Building Type

OS:LifeCycleCost:Parameters,
  {231cf8a0-f0e7-4251-a99f-11f0d464e661}, !- Handle
  FEMP,                                   !- Analysis Type
  ,                                       !- Discounting Convention
  ,                                       !- Inflation Approach
  ,                                       !- Real Discount Rate
  ,                                       !- Nominal Discount Rate
  ,                                       !- Inflation
  ,                                       !- Base Date Month
  ,                                       !- Base Date Year
  ,                                       !- Service Date Month
  ,                                       !- Service Date Year
  ,                                       !- Length of Study Period in Years
  ,                                       !- Tax Rate
  ,                                       !- Depreciation Method
  Yes;                                    !- Use NIST Fuel Escalation Rates

OS:Facility,
  {3ba8e45b-b833-44eb-a723-ea6c3946dc96}; !- Handle

OS:SpaceType,
  {34ff51ea-8106-4005-a434-2f16c652bddd}, !- Handle
  MidriseApartment|BlendA|DOE Ref Pre-1980|ASHRAE 169-2006-5A, !- Name
  {9f5c797c-5b0f-4871-af03-5534fb7e249f}, !- Default Construction Set Name
  ,                                       !- Default Schedule Set Name
  {8ea75110-603e-4968-947b-50a31af517cc}, !- Group Rendering Name
  {5923e3fb-97b8-4142-a945-a221d0dcb940}, !- Design Specification Outdoor Air Object Name
  MidriseApartment,                       !- Standards Building Type
  BlendA;                                 !- Standards Space Type

OS:Rendering:Color,
  {8ea75110-603e-4968-947b-50a31af517cc}, !- Handle
  Rendering Color 1,                      !- Name
  78,                                     !- Rendering Red Value
  167,                                    !- Rendering Green Value
  222;                                    !- Rendering Blue Value

OS:SpaceType,
  {949c385f-933c-4435-a668-1f553542c08b}, !- Handle
  MidriseApartment|Office|DOE Ref Pre-1980|ASHRAE 169-2006-5A, !- Name
  {9f5c797c-5b0f-4871-af03-5534fb7e249f}, !- Default Construction Set Name
  {91692d66-a562-4df0-8301-2cbd56ef0064}, !- Default Schedule Set Name
  {f79b7d12-74b2-4c70-b76d-cbf353f0eebf}, !- Group Rendering Name
  {9e74ca74-fac7-407b-a709-e6de0102931d}, !- Design Specification Outdoor Air Object Name
  MidriseApartment,                       !- Standards Building Type
  Office;                                 !- Standards Space Type

OS:Rendering:Color,
  {f79b7d12-74b2-4c70-b76d-cbf353f0eebf}, !- Handle
  Rendering Color 2,                      !- Name
  120,                                    !- Rendering Red Value
  230,                                    !- Rendering Green Value
  199;                                    !- Rendering Blue Value

OS:Schedule:Ruleset,
  {73648645-6ce5-4a11-b3a0-5c217d67dda5}, !- Handle
  0800|1800|MidriseApartment|default|hoo, !- Name
  {568dbc54-53e8-48d6-9d53-7150d9d08ea1}, !- Schedule Type Limits Name
  {c7f87eed-ab8d-45c2-a3e0-f2a475c1e19e}, !- Default Day Schedule Name
  {2102a2bc-2cc7-46f6-9d30-3603d4f72f7c}, !- Summer Design Day Schedule Name
  {fe661cba-7ac4-4257-b64b-41418e3f45d6}; !- Winter Design Day Schedule Name

OS:Schedule:Day,
  {c7f87eed-ab8d-45c2-a3e0-f2a475c1e19e}, !- Handle
  0800|1800|MidriseApartment|default|hoo Schedule Week Day, !- Name
  {568dbc54-53e8-48d6-9d53-7150d9d08ea1}, !- Schedule Type Limits Name
  ,                                       !- Interpolate to Timestep
  8,                                      !- Hour 1
  0,                                      !- Minute 1
  0,                                      !- Value Until Time 1
  18,                                     !- Hour 2
  0,                                      !- Minute 2
  1,                                      !- Value Until Time 2
  24,                                     !- Hour 3
  0,                                      !- Minute 3
  0;                                      !- Value Until Time 3

OS:Schedule:Day,
  {1a7ba4fe-1965-4fc9-ae2d-4f1ceb6720ae}, !- Handle
  Schedule Day 2,                         !- Name
  ,                                       !- Schedule Type Limits Name
  ,                                       !- Interpolate to Timestep
  24,                                     !- Hour 1
  0,                                      !- Minute 1
  0;                                      !- Value Until Time 1

OS:Schedule:Day,
  {fe661cba-7ac4-4257-b64b-41418e3f45d6}, !- Handle
  0800|1800|MidriseApartment|default|hoo Winter Design Day, !- Name
  {568dbc54-53e8-48d6-9d53-7150d9d08ea1}, !- Schedule Type Limits Name
  ,                                       !- Interpolate to Timestep
  24,                                     !- Hour 1
  0,                                      !- Minute 1
  0;                                      !- Value Until Time 1

OS:Schedule:Day,
  {ee9cfbe1-1610-47bb-aed1-c480a932adcc}, !- Handle
  Schedule Day 3,                         !- Name
  ,                                       !- Schedule Type Limits Name
  ,                                       !- Interpolate to Timestep
  24,                                     !- Hour 1
  0,                                      !- Minute 1
  0;                                      !- Value Until Time 1

OS:Schedule:Day,
  {2102a2bc-2cc7-46f6-9d30-3603d4f72f7c}, !- Handle
  0800|1800|MidriseApartment|default|hoo Summer Design Day, !- Name
  {568dbc54-53e8-48d6-9d53-7150d9d08ea1}, !- Schedule Type Limits Name
  ,                                       !- Interpolate to Timestep
  24,                                     !- Hour 1
  0,                                      !- Minute 1
  1;                                      !- Value Until Time 1

OS:DefaultScheduleSet,
  {ece66675-8d83-42f0-b078-34e66d38ee28}, !- Handle
  Building Hours of Operation,            !- Name
  {73648645-6ce5-4a11-b3a0-5c217d67dda5}, !- Hours of Operation Schedule Name
  ,                                       !- Number of People Schedule Name
  ,                                       !- People Activity Level Schedule Name
  ,                                       !- Lighting Schedule Name
  ,                                       !- Electric Equipment Schedule Name
  ,                                       !- Gas Equipment Schedule Name
  ,                                       !- Hot Water Equipment Schedule Name
  ,                                       !- Infiltration Schedule Name
  ,                                       !- Steam Equipment Schedule Name
  ;                                       !- Other Equipment Schedule Name

OS:ScheduleTypeLimits,
  {568dbc54-53e8-48d6-9d53-7150d9d08ea1}, !- Handle
  OnOff,                                  !- Name
  0,                                      !- Lower Limit Value {BasedOnField A4}
  1,                                      !- Upper Limit Value {BasedOnField A4}
  Discrete,                               !- Numeric Type
  Availability;                           !- Unit Type

OS:Schedule:Ruleset,
  {735543c7-f27b-42ae-9539-beb85fdd9749}, !- Handle
  0800|1800|MidriseApartment|xApartment|lighting, !- Name
  {6547abb2-9fbf-4b0d-ad71-8785cdeda95f}, !- Schedule Type Limits Name
  {1f47c75a-8ae6-4776-87a0-21c1a57825cd}, !- Default Day Schedule Name
  {5acdcea2-921a-4d2f-9a8f-f2619970cc7e}, !- Summer Design Day Schedule Name
  {ad8e15f7-5bde-462f-b680-5c035c1ba4ae}; !- Winter Design Day Schedule Name

OS:ScheduleTypeLimits,
  {6547abb2-9fbf-4b0d-ad71-8785cdeda95f}, !- Handle
  Lights Schedule Type Limits,            !- Name
  0,                                      !- Lower Limit Value {BasedOnField A4}
  1,                                      !- Upper Limit Value {BasedOnField A4}
  Continuous,                             !- Numeric Type
  Dimensionless;                          !- Unit Type

OS:Schedule:Day,
  {1f47c75a-8ae6-4776-87a0-21c1a57825cd}, !- Handle
  0800|1800|MidriseApartment|xApartment|lighting |default, !- Name
  {6547abb2-9fbf-4b0d-ad71-8785cdeda95f}, !- Schedule Type Limits Name
  ,                                       !- Interpolate to Timestep
  4,                                      !- Hour 1
  0,                                      !- Minute 1
  0.07,                                   !- Value Until Time 1
  5,                                      !- Hour 2
  0,                                      !- Minute 2
  0.19,                                   !- Value Until Time 2
  6,                                      !- Hour 3
  0,                                      !- Minute 3
  0.39,                                   !- Value Until Time 3
  7,                                      !- Hour 4
  0,                                      !- Minute 4
  0.44,                                   !- Value Until Time 4
  8,                                      !- Hour 5
  0,                                      !- Minute 5
  0.39,                                   !- Value Until Time 5
  9,                                      !- Hour 6
  0,                                      !- Minute 6
  0.17,                                   !- Value Until Time 6
  15,                                     !- Hour 7
  0,                                      !- Minute 7
  0.12,                                   !- Value Until Time 7
  16,                                     !- Hour 8
  0,                                      !- Minute 8
  0.21,                                   !- Value Until Time 8
  17,                                     !- Hour 9
  0,                                      !- Minute 9
  0.44,                                   !- Value Until Time 9
  18,                                     !- Hour 10
  0,                                      !- Minute 10
  0.62,                                   !- Value Until Time 10
  19,                                     !- Hour 11
  0,                                      !- Minute 11
  0.83,                                   !- Value Until Time 11
  20,                                     !- Hour 12
  0,                                      !- Minute 12
  0.99,                                   !- Value Until Time 12
  21,                                     !- Hour 13
  0,                                      !- Minute 13
  1,                                      !- Value Until Time 13
  22,                                     !- Hour 14
  0,                                      !- Minute 14
  0.69,                                   !- Value Until Time 14
  23,                                     !- Hour 15
  0,                                      !- Minute 15
  0.38,                                   !- Value Until Time 15
  24,                                     !- Hour 16
  0,                                      !- Minute 16
  0.16;                                   !- Value Until Time 16

OS:Schedule:Day,
  {5acdcea2-921a-4d2f-9a8f-f2619970cc7e}, !- Handle
  0800|1800|MidriseApartment|xApartment|lighting Summer Design Day, !- Name
  {6547abb2-9fbf-4b0d-ad71-8785cdeda95f}, !- Schedule Type Limits Name
  ,                                       !- Interpolate to Timestep
  4,                                      !- Hour 1
  0,                                      !- Minute 1
  0.07,                                   !- Value Until Time 1
  5,                                      !- Hour 2
  0,                                      !- Minute 2
  0.19,                                   !- Value Until Time 2
  8,                                      !- Hour 3
  0,                                      !- Minute 3
  1,                                      !- Value Until Time 3
  9,                                      !- Hour 4
  0,                                      !- Minute 4
  0.17,                                   !- Value Until Time 4
  15,                                     !- Hour 5
  0,                                      !- Minute 5
  0.12,                                   !- Value Until Time 5
  16,                                     !- Hour 6
  0,                                      !- Minute 6
  0.21,                                   !- Value Until Time 6
  23,                                     !- Hour 7
  0,                                      !- Minute 7
  1,                                      !- Value Until Time 7
  24,                                     !- Hour 8
  0,                                      !- Minute 8
  0.16;                                   !- Value Until Time 8

OS:Schedule:Day,
  {ad8e15f7-5bde-462f-b680-5c035c1ba4ae}, !- Handle
  0800|1800|MidriseApartment|xApartment|lighting Winter Design Day, !- Name
  {6547abb2-9fbf-4b0d-ad71-8785cdeda95f}, !- Schedule Type Limits Name
  ,                                       !- Interpolate to Timestep
  24,                                     !- Hour 1
  0,                                      !- Minute 1
  0.07;                                   !- Value Until Time 1

OS:Schedule:Ruleset,
  {5b2253e9-ffeb-47a3-886e-9c778adf8f06}, !- Handle
  0800|1800|MidriseApartment|default|clg_setpoint, !- Name
  {b5427454-efe6-45ee-b968-161c4c004145}, !- Schedule Type Limits Name
  {f52eccaf-63fe-4b41-9660-d1c04284994d}, !- Default Day Schedule Name
  {91419712-625d-4dc8-af03-acf24bf98c05}, !- Summer Design Day Schedule Name
  {1df0ea84-9cda-4cd5-b0e4-d7fbdf5ee0ac}; !- Winter Design Day Schedule Name

OS:ScheduleTypeLimits,
  {b5427454-efe6-45ee-b968-161c4c004145}, !- Handle
  Thermostat Cooling Setpoint Schedule Type Limits, !- Name
  0,                                      !- Lower Limit Value {BasedOnField A4}
  100,                                    !- Upper Limit Value {BasedOnField A4}
  Continuous,                             !- Numeric Type
  Temperature;                            !- Unit Type

OS:Schedule:Day,
  {f52eccaf-63fe-4b41-9660-d1c04284994d}, !- Handle
  0800|1800|MidriseApartment|default|clg_setpoint |default, !- Name
  {b5427454-efe6-45ee-b968-161c4c004145}, !- Schedule Type Limits Name
  ,                                       !- Interpolate to Timestep
  24,                                     !- Hour 1
  0,                                      !- Minute 1
  23.8888888888889;                       !- Value Until Time 1

OS:Schedule:Day,
  {91419712-625d-4dc8-af03-acf24bf98c05}, !- Handle
  0800|1800|MidriseApartment|default|clg_setpoint Summer Design Day, !- Name
  {b5427454-efe6-45ee-b968-161c4c004145}, !- Schedule Type Limits Name
  ,                                       !- Interpolate to Timestep
  24,                                     !- Hour 1
  0,                                      !- Minute 1
  23.8888888888889;                       !- Value Until Time 1

OS:Schedule:Day,
  {1df0ea84-9cda-4cd5-b0e4-d7fbdf5ee0ac}, !- Handle
  0800|1800|MidriseApartment|default|clg_setpoint Winter Design Day, !- Name
  {b5427454-efe6-45ee-b968-161c4c004145}, !- Schedule Type Limits Name
  ,                                       !- Interpolate to Timestep
  24,                                     !- Hour 1
  0,                                      !- Minute 1
  23.8888888888889;                       !- Value Until Time 1

OS:Schedule:Ruleset,
  {974c9714-acbe-46eb-8d5f-8931711dab1f}, !- Handle
  0800|1800|MidriseApartment|default|work_eff, !- Name
  {dd6c33af-70ab-4140-bb25-3ceac6215a5a}, !- Schedule Type Limits Name
  {72e7fb4b-f113-4c00-9fc6-3e0e30268e18}, !- Default Day Schedule Name
  {83fb9d54-2498-4e3b-8300-b80d2d153e6b}, !- Summer Design Day Schedule Name
  {b2ef5ab6-ad7d-4778-ba14-ab9122a74289}; !- Winter Design Day Schedule Name

OS:ScheduleTypeLimits,
  {dd6c33af-70ab-4140-bb25-3ceac6215a5a}, !- Handle
  Fraction Schedule Type Limits,          !- Name
  0,                                      !- Lower Limit Value {BasedOnField A4}
  1,                                      !- Upper Limit Value {BasedOnField A4}
  Continuous,                             !- Numeric Type
  Dimensionless;                          !- Unit Type

OS:Schedule:Day,
  {72e7fb4b-f113-4c00-9fc6-3e0e30268e18}, !- Handle
  0800|1800|MidriseApartment|default|work_eff |default, !- Name
  {dd6c33af-70ab-4140-bb25-3ceac6215a5a}, !- Schedule Type Limits Name
  ,                                       !- Interpolate to Timestep
  24,                                     !- Hour 1
  0,                                      !- Minute 1
  0;                                      !- Value Until Time 1

OS:Schedule:Day,
  {83fb9d54-2498-4e3b-8300-b80d2d153e6b}, !- Handle
  0800|1800|MidriseApartment|default|work_eff Summer Design Day, !- Name
  {dd6c33af-70ab-4140-bb25-3ceac6215a5a}, !- Schedule Type Limits Name
  ,                                       !- Interpolate to Timestep
  24,                                     !- Hour 1
  0,                                      !- Minute 1
  0;                                      !- Value Until Time 1

OS:Schedule:Day,
  {b2ef5ab6-ad7d-4778-ba14-ab9122a74289}, !- Handle
  0800|1800|MidriseApartment|default|work_eff Winter Design Day, !- Name
  {dd6c33af-70ab-4140-bb25-3ceac6215a5a}, !- Schedule Type Limits Name
  ,                                       !- Interpolate to Timestep
  24,                                     !- Hour 1
  0,                                      !- Minute 1
  0;                                      !- Value Until Time 1

OS:Schedule:Ruleset,
  {2f5ce18c-9142-49b3-8204-a801795ca370}, !- Handle
  0800|1800|MidriseApartment|default|rh,  !- Name
  {4df3ffb2-248d-407e-a875-f6e2099313fd}, !- Schedule Type Limits Name
  {724a10b9-6952-4319-800f-c70b1afe4381}, !- Default Day Schedule Name
  {553e4815-22ad-478f-8dd6-e264331df8ec}, !- Summer Design Day Schedule Name
  {b3294ba4-8b21-44aa-bf01-ce8d0ff82256}; !- Winter Design Day Schedule Name

OS:ScheduleTypeLimits,
  {4df3ffb2-248d-407e-a875-f6e2099313fd}, !- Handle
  Dimensionless Schedule Type Limits,     !- Name
  ,                                       !- Lower Limit Value {BasedOnField A4}
  ,                                       !- Upper Limit Value {BasedOnField A4}
  Continuous,                             !- Numeric Type
  Dimensionless;                          !- Unit Type

OS:Schedule:Day,
  {724a10b9-6952-4319-800f-c70b1afe4381}, !- Handle
  0800|1800|MidriseApartment|default|rh |default, !- Name
  {4df3ffb2-248d-407e-a875-f6e2099313fd}, !- Schedule Type Limits Name
  ,                                       !- Interpolate to Timestep
  24,                                     !- Hour 1
  0,                                      !- Minute 1
  50;                                     !- Value Until Time 1

OS:Schedule:Day,
  {553e4815-22ad-478f-8dd6-e264331df8ec}, !- Handle
  0800|1800|MidriseApartment|default|rh Summer Design Day, !- Name
  {4df3ffb2-248d-407e-a875-f6e2099313fd}, !- Schedule Type Limits Name
  ,                                       !- Interpolate to Timestep
  24,                                     !- Hour 1
  0,                                      !- Minute 1
  50;                                     !- Value Until Time 1

OS:Schedule:Day,
  {b3294ba4-8b21-44aa-bf01-ce8d0ff82256}, !- Handle
  0800|1800|MidriseApartment|default|rh Winter Design Day, !- Name
  {4df3ffb2-248d-407e-a875-f6e2099313fd}, !- Schedule Type Limits Name
  ,                                       !- Interpolate to Timestep
  24,                                     !- Hour 1
  0,                                      !- Minute 1
  50;                                     !- Value Until Time 1

OS:Schedule:Ruleset,
  {84f14523-3b1e-4622-8d8d-3719088e6772}, !- Handle
  0800|1800|MidriseApartment|Office|lighting, !- Name
  {6547abb2-9fbf-4b0d-ad71-8785cdeda95f}, !- Schedule Type Limits Name
  {caa6f24b-01c5-4988-9214-cbc0c524da83}, !- Default Day Schedule Name
  {5087ae3c-5740-4f7a-9113-2ad15890ffca}, !- Summer Design Day Schedule Name
  {a7cb0b5a-7ec3-4420-b8b8-2b4a2a859fb9}; !- Winter Design Day Schedule Name

OS:Schedule:Day,
  {caa6f24b-01c5-4988-9214-cbc0c524da83}, !- Handle
  0800|1800|MidriseApartment|Office|lighting |default, !- Name
  {6547abb2-9fbf-4b0d-ad71-8785cdeda95f}, !- Schedule Type Limits Name
  ,                                       !- Interpolate to Timestep
  8,                                      !- Hour 1
  0,                                      !- Minute 1
  0.18,                                   !- Value Until Time 1
  12,                                     !- Hour 2
  30,                                     !- Minute 2
  0.9,                                    !- Value Until Time 2
  13,                                     !- Hour 3
  30,                                     !- Minute 3
  0.8,                                    !- Value Until Time 3
  18,                                     !- Hour 4
  0,                                      !- Minute 4
  0.9,                                    !- Value Until Time 4
  24,                                     !- Hour 5
  0,                                      !- Minute 5
  0.18;                                   !- Value Until Time 5

OS:Schedule:Day,
  {5087ae3c-5740-4f7a-9113-2ad15890ffca}, !- Handle
  0800|1800|MidriseApartment|Office|lighting Summer Design Day, !- Name
  {6547abb2-9fbf-4b0d-ad71-8785cdeda95f}, !- Schedule Type Limits Name
  ,                                       !- Interpolate to Timestep
  8,                                      !- Hour 1
  0,                                      !- Minute 1
  0.18,                                   !- Value Until Time 1
  18,                                     !- Hour 2
  0,                                      !- Minute 2
  1,                                      !- Value Until Time 2
  24,                                     !- Hour 3
  0,                                      !- Minute 3
  0.18;                                   !- Value Until Time 3

OS:Schedule:Day,
  {a7cb0b5a-7ec3-4420-b8b8-2b4a2a859fb9}, !- Handle
  0800|1800|MidriseApartment|Office|lighting Winter Design Day, !- Name
  {6547abb2-9fbf-4b0d-ad71-8785cdeda95f}, !- Schedule Type Limits Name
  ,                                       !- Interpolate to Timestep
  24,                                     !- Hour 1
  0,                                      !- Minute 1
  0.18;                                   !- Value Until Time 1

OS:Schedule:Ruleset,
  {dffc5e22-ea47-4d12-8572-90f138a42c05}, !- Handle
  0800|1800|MidriseApartment|default|elevator, !- Name
  {0d9ffd55-812b-4dd2-91b7-c519151a2a7e}, !- Schedule Type Limits Name
  {878a8a67-fc63-4cb5-9585-c25df67f053d}, !- Default Day Schedule Name
  {02bb5c5b-c6e0-4def-8a83-686a50c4567e}, !- Summer Design Day Schedule Name
  {3f9ce877-472a-4733-a2f3-bcc465625716}; !- Winter Design Day Schedule Name

OS:ScheduleTypeLimits,
  {0d9ffd55-812b-4dd2-91b7-c519151a2a7e}, !- Handle
  Elevators Schedule Type Limits,         !- Name
  0,                                      !- Lower Limit Value {BasedOnField A4}
  1,                                      !- Upper Limit Value {BasedOnField A4}
  Continuous,                             !- Numeric Type
  Dimensionless;                          !- Unit Type

OS:Schedule:Day,
  {878a8a67-fc63-4cb5-9585-c25df67f053d}, !- Handle
  0800|1800|MidriseApartment|default|elevator |default, !- Name
  {0d9ffd55-812b-4dd2-91b7-c519151a2a7e}, !- Schedule Type Limits Name
  ,                                       !- Interpolate to Timestep
  4,                                      !- Hour 1
  0,                                      !- Minute 1
  0.05,                                   !- Value Until Time 1
  5,                                      !- Hour 2