
OS:Version,
  {e144da91-9f16-44b6-a678-0b13e553ec68}, !- Handle
  1.5.5;                                  !- Version Identifier

OS:ClimateZones,
  {135edfab-17e7-40db-a436-27d385a8cd6d}, !- Handle
  ,                                       !- Active Institution
  ,                                       !- Active Year
  ASHRAE,                                 !- Climate Zone Institution Name 1
  ANSI/ASHRAE Standard 169,               !- Climate Zone Document Name 1
  2006,                                   !- Climate Zone Document Year 1
  ,                                       !- Climate Zone Value 1
  CEC,                                    !- Climate Zone Institution Name 2
  California Climate Zone Descriptions,   !- Climate Zone Document Name 2
  1995,                                   !- Climate Zone Document Year 2
  ;                                       !- Climate Zone Value 2

OS:YearDescription,
  {513d8dda-86cb-442a-b01c-1f7f0e0ac70e}; !- Handle

OS:RadianceParameters,
  {270a96f1-3c86-4b75-a667-cdf22790e2c8}, !- Handle
  1,                                      !- Accumulated Rays per Record
  0,                                      !- Direct Threshold
  1,                                      !- Direct Certainty
  1,                                      !- Direct Jitter
  1,                                      !- Direct Pretest
  6,                                      !- Ambient Bounces VMX
  2,                                      !- Ambient Bounces DMX
  4050,                                   !- Ambient Divisions VMX
  512,                                    !- Ambient Divisions DMX
  256,                                    !- Ambient Supersamples
  0.001,                                  !- Limit Weight VMX
  0.001,                                  !- Limit Weight DMX
  500,                                    !- Klems Sampling Density
  146;                                    !- Sky Discretization Resolution

OS:SimulationControl,
  {2c487a4c-bac9-4ac5-b669-1e49d9da7c2b}, !- Handle
  ,                                       !- Do Zone Sizing Calculation
  ,                                       !- Do System Sizing Calculation
  ,                                       !- Do Plant Sizing Calculation
  No,                                     !- Run Simulation for Sizing Periods
  ,                                       !- Run Simulation for Weather File Run Periods
  0.04,                                   !- Loads Convergence Tolerance Value
  ,                                       !- Temperature Convergence Tolerance Value {deltaC}
  ,                                       !- Solar Distribution
  ,                                       !- Maximum Number of Warmup Days
  2;                                      !- Minimum Number of Warmup Days

OS:Sizing:Parameters,
  {dde5af6f-7923-4600-a28a-7556673a0266}, !- Handle
  1.25,                                   !- Heating Sizing Factor
  1.15;                                   !- Cooling Sizing Factor

OS:ProgramControl,
  {05027a99-f2b3-4aeb-afc6-1425fbb4371d}; !- Handle

OS:Timestep,
  {4ebc9f1e-4707-402e-9844-67eb1ffbd522}, !- Handle
  2;                                      !- Number of Timesteps per Hour

OS:OutputControl:ReportingTolerances,
  {65797aa2-06a9-45fe-b69d-bc6e060399d3}; !- Handle

OS:ConvergenceLimits,
  {9fc11aba-8822-4f3d-970c-46391ba4040d}; !- Handle

OS:ShadowCalculation,
  {ca758bea-4416-4626-9bba-3d8795c79bd6}, !- Handle
  7,                                      !- Calculation Frequency
  15000;                                  !- Maximum Figures in Shadow Overlap Calculations

OS:SurfaceConvectionAlgorithm:Inside,
  {aaabfc36-718a-4ab0-b622-f186ebb45230}, !- Handle
  TARP;                                   !- Algorithm

OS:SurfaceConvectionAlgorithm:Outside,
  {9a0a9f6f-4bbd-4b12-a121-9492a1fcd7d6}, !- Handle
  DOE-2;                                  !- Algorithm

OS:HeatBalanceAlgorithm,
  {9d93e563-e1e0-46d7-9e39-d1c8aceb7212}, !- Handle
  ConductionTransferFunction,             !- Algorithm
  200;                                    !- Surface Temperature Upper Limit {F}

OS:ZoneAirHeatBalanceAlgorithm,
  {8520d93e-310f-4696-9bcd-36228bfdd743}, !- Handle
  AnalyticalSolution;                     !- Algorithm

OS:ZoneAirContaminantBalance,
  {eb5fc3ae-fb22-4160-8fcb-3e3b22b000d3}; !- Handle

OS:ZoneCapacitanceMultiplier:ResearchSpecial,
  {4020ce4f-5a7a-4849-8028-8305d7b751b1}, !- Handle
  ,                                       !- Temperature Capacity Multiplier
  ,                                       !- Humidity Capacity Multiplier
  ;                                       !- Carbon Dioxide Capacity Multiplier

OS:RunPeriod,
  {28df894d-6af9-4fb8-8f56-df1753344aa3}, !- Handle
  Run Period 1,                           !- Name
  1,                                      !- Begin Month
  1,                                      !- Begin Day of Month
  12,                                     !- End Month
  31,                                     !- End Day of Month
  ,                                       !- Use Weather File Holidays and Special Days
  ,                                       !- Use Weather File Daylight Saving Period
  ,                                       !- Apply Weekend Holiday Rule
  ,                                       !- Use Weather File Rain Indicators
  ,                                       !- Use Weather File Snow Indicators
  ;                                       !- Number of Times Runperiod to be Repeated

OS:Building,
  {bf305633-c5a1-4881-9edf-ca5e1a8e1274}, !- Handle
  Building 1,                             !- Name
  ,                                       !- Building Sector Type
  ,                                       !- North Axis {deg}
  ,                                       !- Nominal Floor to Floor Height {m}
  ,                                       !- Space Type Name
  ,                                       !- Default Construction Set Name
  {d60a013b-3113-4a5d-a324-5947516f4195}, !- Default Schedule Set Name
  ,                                       !- Standards Number of Stories
  ,                                       !- Standards Number of Above Ground Stories
  MidriseApartment;                       !- Standards Building Type

OS:LifeCycleCost:Parameters,
  {231cf8a0-f0e7-4251-a99f-11f0d464e661}, !- Handle
  FEMP,                                   !- Analysis Type
  ,                                       !- Discounting Convention
  ,                                       !- Inflation Approach
  ,                                       !- Real Discount Rate
  ,                                       !- Nominal Discount Rate
  ,                                       !- Inflation
  ,                                       !- Base Date Month
  ,                                       !- Base Date Year
  ,                                       !- Service Date Month
  ,                                       !- Service Date Year
  ,                                       !- Length of Study Period in Years
  ,                                       !- Tax Rate
  ,                                       !- Depreciation Method
  Yes;                                    !- Use NIST Fuel Escalation Rates

OS:Facility,
  {3ba8e45b-b833-44eb-a723-ea6c3946dc96}; !- Handle

OS:SpaceType,
  {9b13d703-23d3-4450-a816-1c7edc7a6eb6}, !- Handle
  MidriseApartment|BlendA|DOE Ref 1980-2004|ASHRAE 169-2006-5A, !- Name
  {3942180d-348d-4bfd-99d5-5a4239dd32b0}, !- Default Construction Set Name
  ,                                       !- Default Schedule Set Name
  {5c6634de-b2ee-4613-9c87-9aa587583417}, !- Group Rendering Name
  {88cccdc9-21ec-4d52-bfad-b532299734dc}, !- Design Specification Outdoor Air Object Name
  MidriseApartment,                       !- Standards Building Type
  BlendA;                                 !- Standards Space Type

OS:Rendering:Color,
  {5c6634de-b2ee-4613-9c87-9aa587583417}, !- Handle
  Rendering Color 1,                      !- Name
  78,                                     !- Rendering Red Value
  167,                                    !- Rendering Green Value
  222;                                    !- Rendering Blue Value

OS:SpaceType,
  {13d7260f-569f-421d-b399-bf53e099f4a3}, !- Handle
  MidriseApartment|Office|DOE Ref 1980-2004|ASHRAE 169-2006-5A, !- Name
  {3942180d-348d-4bfd-99d5-5a4239dd32b0}, !- Default Construction Set Name
  {d9be7c5e-0658-4b34-bb21-6fecc74d5bcb}, !- Default Schedule Set Name
  {64b86328-0979-4dce-ab8c-462cbe6e6e92}, !- Group Rendering Name
  {9c46b93f-3a55-400e-a2c6-fc7abc2d35e0}, !- Design Specification Outdoor Air Object Name
  MidriseApartment,                       !- Standards Building Type
  Office;                                 !- Standards Space Type

OS:Rendering:Color,
  {64b86328-0979-4dce-ab8c-462cbe6e6e92}, !- Handle
  Rendering Color 2,                      !- Name
  120,                                    !- Rendering Red Value
  230,                                    !- Rendering Green Value
  199;                                    !- Rendering Blue Value

OS:Schedule:Ruleset,
  {50fd50d0-3487-4255-a136-b0ef545e1cb6}, !- Handle
  0800|1800|MidriseApartment|default|hoo, !- Name
  {f6474f36-83e8-48e2-9c47-535b5dc5c1de}, !- Schedule Type Limits Name
  {98b7dc02-83c7-4c19-b98b-36cf9d3d4612}, !- Default Day Schedule Name
  {8f47aff4-9f7f-47fa-b47f-e755ba8ad017}, !- Summer Design Day Schedule Name
  {dbde811e-bfba-45bf-a177-8008b3db44ac}; !- Winter Design Day Schedule Name

OS:Schedule:Day,
  {98b7dc02-83c7-4c19-b98b-36cf9d3d4612}, !- Handle
  0800|1800|MidriseApartment|default|hoo Schedule Week Day, !- Name
  {f6474f36-83e8-48e2-9c47-535b5dc5c1de}, !- Schedule Type Limits Name
  ,                                       !- Interpolate to Timestep
  8,                                      !- Hour 1
  0,                                      !- Minute 1
  0,                                      !- Value Until Time 1
  18,                                     !- Hour 2
  0,                                      !- Minute 2
  1,                                      !- Value Until Time 2
  24,                                     !- Hour 3
  0,                                      !- Minute 3
  0;                                      !- Value Until Time 3

OS:Schedule:Day,
  {947f297a-9a8f-417a-ae68-80e5231f896c}, !- Handle
  Schedule Day 2,                         !- Name
  ,                                       !- Schedule Type Limits Name
  ,                                       !- Interpolate to Timestep
  24,                                     !- Hour 1
  0,                                      !- Minute 1
  0;                                      !- Value Until Time 1

OS:Schedule:Day,
  {dbde811e-bfba-45bf-a177-8008b3db44ac}, !- Handle
  0800|1800|MidriseApartment|default|hoo Winter Design Day, !- Name
  {f6474f36-83e8-48e2-9c47-535b5dc5c1de}, !- Schedule Type Limits Name
  ,                                       !- Interpolate to Timestep
  24,                                     !- Hour 1
  0,                                      !- Minute 1
  0;                                      !- Value Until Time 1

OS:Schedule:Day,
  {2adeccf3-b3da-460c-99c9-b32b0cf75287}, !- Handle
  Schedule Day 3,                         !- Name
  ,                                       !- Schedule Type Limits Name
  ,                                       !- Interpolate to Timestep
  24,                                     !- Hour 1
  0,                                      !- Minute 1
  0;                                      !- Value Until Time 1

OS:Schedule:Day,
  {8f47aff4-9f7f-47fa-b47f-e755ba8ad017}, !- Handle
  0800|1800|MidriseApartment|default|hoo Summer Design Day, !- Name
  {f6474f36-83e8-48e2-9c47-535b5dc5c1de}, !- Schedule Type Limits Name
  ,                                       !- Interpolate to Timestep
  24,                                     !- Hour 1
  0,                                      !- Minute 1
  1;                                      !- Value Until Time 1

OS:DefaultScheduleSet,
  {d60a013b-3113-4a5d-a324-5947516f4195}, !- Handle
  Building Hours of Operation,            !- Name
  {50fd50d0-3487-4255-a136-b0ef545e1cb6}, !- Hours of Operation Schedule Name
  ,                                       !- Number of People Schedule Name
  ,                                       !- People Activity Level Schedule Name
  ,                                       !- Lighting Schedule Name
  ,                                       !- Electric Equipment Schedule Name
  ,                                       !- Gas Equipment Schedule Name
  ,                                       !- Hot Water Equipment Schedule Name
  ,                                       !- Infiltration Schedule Name
  ,                                       !- Steam Equipment Schedule Name
  ;                                       !- Other Equipment Schedule Name

OS:ScheduleTypeLimits,
  {f6474f36-83e8-48e2-9c47-535b5dc5c1de}, !- Handle
  OnOff,                                  !- Name
  0,                                      !- Lower Limit Value {BasedOnField A4}
  1,                                      !- Upper Limit Value {BasedOnField A4}
  Discrete,                               !- Numeric Type
  Availability;                           !- Unit Type

OS:Schedule:Ruleset,
  {7cbc2fd1-1322-4054-88ad-19cc1da8ec09}, !- Handle
  0800|1800|MidriseApartment|xApartment|lighting, !- Name
  {aa4fc5c1-89ad-46db-8ac4-a55a2aed8dcc}, !- Schedule Type Limits Name
  {df5baedc-76cd-4e6c-b703-25405752f710}, !- Default Day Schedule Name
  {0d44055b-d849-4e44-ab4d-b5179336e876}, !- Summer Design Day Schedule Name
  {7b65c798-da8f-4f38-ae54-b4d2fcce7358}; !- Winter Design Day Schedule Name

OS:ScheduleTypeLimits,
  {aa4fc5c1-89ad-46db-8ac4-a55a2aed8dcc}, !- Handle
  Lights Schedule Type Limits,            !- Name
  0,                                      !- Lower Limit Value {BasedOnField A4}
  1,                                      !- Upper Limit Value {BasedOnField A4}
  Continuous,                             !- Numeric Type
  Dimensionless;                          !- Unit Type

OS:Schedule:Day,
  {df5baedc-76cd-4e6c-b703-25405752f710}, !- Handle
  0800|1800|MidriseApartment|xApartment|lighting |default, !- Name
  {aa4fc5c1-89ad-46db-8ac4-a55a2aed8dcc}, !- Schedule Type Limits Name
  ,                                       !- Interpolate to Timestep
  4,                                      !- Hour 1
  0,                                      !- Minute 1
  0.07,                                   !- Value Until Time 1
  5,                                      !- Hour 2
  0,                                      !- Minute 2
  0.19,                                   !- Value Until Time 2
  6,                                      !- Hour 3
  0,                                      !- Minute 3
  0.39,                                   !- Value Until Time 3
  7,                                      !- Hour 4
  0,                                      !- Minute 4
  0.44,                                   !- Value Until Time 4
  8,                                      !- Hour 5
  0,                                      !- Minute 5
  0.39,                                   !- Value Until Time 5
  9,                                      !- Hour 6
  0,                                      !- Minute 6
  0.17,                                   !- Value Until Time 6
  15,                                     !- Hour 7
  0,                                      !- Minute 7
  0.12,                                   !- Value Until Time 7
  16,                                     !- Hour 8
  0,                                      !- Minute 8
  0.21,                                   !- Value Until Time 8
  17,                                     !- Hour 9
  0,                                      !- Minute 9
  0.44,                                   !- Value Until Time 9
  18,                                     !- Hour 10
  0,                                      !- Minute 10
  0.62,                                   !- Value Until Time 10
  19,                                     !- Hour 11
  0,                                      !- Minute 11
  0.83,                                   !- Value Until Time 11
  20,                                     !- Hour 12
  0,                                      !- Minute 12
  0.99,                                   !- Value Until Time 12
  21,                                     !- Hour 13
  0,                                      !- Minute 13
  1,                                      !- Value Until Time 13
  22,                                     !- Hour 14
  0,                                      !- Minute 14
  0.69,                                   !- Value Until Time 14
  23,                                     !- Hour 15
  0,                                      !- Minute 15
  0.38,                                   !- Value Until Time 15
  24,                                     !- Hour 16
  0,                                      !- Minute 16
  0.16;                                   !- Value Until Time 16

OS:Schedule:Day,
  {0d44055b-d849-4e44-ab4d-b5179336e876}, !- Handle
  0800|1800|MidriseApartment|xApartment|lighting Summer Design Day, !- Name
  {aa4fc5c1-89ad-46db-8ac4-a55a2aed8dcc}, !- Schedule Type Limits Name
  ,                                       !- Interpolate to Timestep
  4,                                      !- Hour 1
  0,                                      !- Minute 1
  0.07,                                   !- Value Until Time 1
  5,                                      !- Hour 2
  0,                                      !- Minute 2
  0.19,                                   !- Value Until Time 2
  8,                                      !- Hour 3
  0,                                      !- Minute 3
  1,                                      !- Value Until Time 3
  9,                                      !- Hour 4
  0,                                      !- Minute 4
  0.17,                                   !- Value Until Time 4
  15,                                     !- Hour 5
  0,                                      !- Minute 5
  0.12,                                   !- Value Until Time 5
  16,                                     !- Hour 6
  0,                                      !- Minute 6
  0.21,                                   !- Value Until Time 6
  23,                                     !- Hour 7
  0,                                      !- Minute 7
  1,                                      !- Value Until Time 7
  24,                                     !- Hour 8
  0,                                      !- Minute 8
  0.16;                                   !- Value Until Time 8

OS:Schedule:Day,
  {7b65c798-da8f-4f38-ae54-b4d2fcce7358}, !- Handle
  0800|1800|MidriseApartment|xApartment|lighting Winter Design Day, !- Name
  {aa4fc5c1-89ad-46db-8ac4-a55a2aed8dcc}, !- Schedule Type Limits Name
  ,                                       !- Interpolate to Timestep
  24,                                     !- Hour 1
  0,                                      !- Minute 1
  0.07;                                   !- Value Until Time 1

OS:Schedule:Ruleset,
  {76914f15-1c59-49f3-9bfb-67db1ab093bf}, !- Handle
  0800|1800|MidriseApartment|default|clg_setpoint, !- Name
  {629fee8c-687f-47ff-82bb-b089906e2d02}, !- Schedule Type Limits Name
  {6acca708-7b7f-4e64-ba31-e2ba833f772a}, !- Default Day Schedule Name
  {8f00c93e-3360-41aa-81d3-71466e9309fc}, !- Summer Design Day Schedule Name
  {1fac4042-2138-4624-9c81-28efcc1fbf3d}; !- Winter Design Day Schedule Name

OS:ScheduleTypeLimits,
  {629fee8c-687f-47ff-82bb-b089906e2d02}, !- Handle
  Thermostat Cooling Setpoint Schedule Type Limits, !- Name
  0,                                      !- Lower Limit Value {BasedOnField A4}
  100,                                    !- Upper Limit Value {BasedOnField A4}
  Continuous,                             !- Numeric Type
  Temperature;                            !- Unit Type

OS:Schedule:Day,
  {6acca708-7b7f-4e64-ba31-e2ba833f772a}, !- Handle
  0800|1800|MidriseApartment|default|clg_setpoint |default, !- Name
  {629fee8c-687f-47ff-82bb-b089906e2d02}, !- Schedule Type Limits Name
  ,                                       !- Interpolate to Timestep
  24,                                     !- Hour 1
  0,                                      !- Minute 1
  23.8888888888889;                       !- Value Until Time 1

OS:Schedule:Day,
  {8f00c93e-3360-41aa-81d3-71466e9309fc}, !- Handle
  0800|1800|MidriseApartment|default|clg_setpoint Summer Design Day, !- Name
  {629fee8c-687f-47ff-82bb-b089906e2d02}, !- Schedule Type Limits Name
  ,                                       !- Interpolate to Timestep
  24,                                     !- Hour 1
  0,                                      !- Minute 1
  23.8888888888889;                       !- Value Until Time 1

OS:Schedule:Day,
  {1fac4042-2138-4624-9c81-28efcc1fbf3d}, !- Handle
  0800|1800|MidriseApartment|default|clg_setpoint Winter Design Day, !- Name
  {629fee8c-687f-47ff-82bb-b089906e2d02}, !- Schedule Type Limits Name
  ,                                       !- Interpolate to Timestep
  24,                                     !- Hour 1
  0,                                      !- Minute 1
  23.8888888888889;                       !- Value Until Time 1

OS:Schedule:Ruleset,
  {e7be7336-0c77-4f5a-b221-f428b06b32f3}, !- Handle
  0800|1800|MidriseApartment|default|work_eff, !- Name
  {c8c8b131-b1ad-45d5-aed6-0830a48067bd}, !- Schedule Type Limits Name
  {ad0d88af-8259-47ea-8421-ee9735a14338}, !- Default Day Schedule Name
  {70e79b53-dfa0-4523-b71e-8ecf814ee376}, !- Summer Design Day Schedule Name
  {577a6366-e1dc-49bb-a353-65ab37dae4e3}; !- Winter Design Day Schedule Name

OS:ScheduleTypeLimits,
  {c8c8b131-b1ad-45d5-aed6-0830a48067bd}, !- Handle
  Fraction Schedule Type Limits,          !- Name
  0,                                      !- Lower Limit Value {BasedOnField A4}
  1,                                      !- Upper Limit Value {BasedOnField A4}
  Continuous,                             !- Numeric Type
  Dimensionless;                          !- Unit Type

OS:Schedule:Day,
  {ad0d88af-8259-47ea-8421-ee9735a14338}, !- Handle
  0800|1800|MidriseApartment|default|work_eff |default, !- Name
  {c8c8b131-b1ad-45d5-aed6-0830a48067bd}, !- Schedule Type Limits Name
  ,                                       !- Interpolate to Timestep
  24,                                     !- Hour 1
  0,                                      !- Minute 1
  0;                                      !- Value Until Time 1

OS:Schedule:Day,
  {70e79b53-dfa0-4523-b71e-8ecf814ee376}, !- Handle
  0800|1800|MidriseApartment|default|work_eff Summer Design Day, !- Name
  {c8c8b131-b1ad-45d5-aed6-0830a48067bd}, !- Schedule Type Limits Name
  ,                                       !- Interpolate to Timestep
  24,                                     !- Hour 1
  0,                                      !- Minute 1
  0;                                      !- Value Until Time 1

OS:Schedule:Day,
  {577a6366-e1dc-49bb-a353-65ab37dae4e3}, !- Handle
  0800|1800|MidriseApartment|default|work_eff Winter Design Day, !- Name
  {c8c8b131-b1ad-45d5-aed6-0830a48067bd}, !- Schedule Type Limits Name
  ,                                       !- Interpolate to Timestep
  24,                                     !- Hour 1
  0,                                      !- Minute 1
  0;                                      !- Value Until Time 1

OS:Schedule:Ruleset,
  {2a2386b5-9f34-485d-a764-41f424e86078}, !- Handle
  0800|1800|MidriseApartment|default|rh,  !- Name
  {f270ddaf-6c24-445b-9202-7c653e4278a3}, !- Schedule Type Limits Name
  {daebe5e4-26d4-4935-99d3-a24664e0f008}, !- Default Day Schedule Name
  {121c7560-cd46-4bcc-9fd7-cef247cb9cd8}, !- Summer Design Day Schedule Name
  {e9c6b47a-65c3-4076-bc8a-485f1fc530b1}; !- Winter Design Day Schedule Name

OS:ScheduleTypeLimits,
  {f270ddaf-6c24-445b-9202-7c653e4278a3}, !- Handle
  Dimensionless Schedule Type Limits,     !- Name
  ,                                       !- Lower Limit Value {BasedOnField A4}
  ,                                       !- Upper Limit Value {BasedOnField A4}
  Continuous,                             !- Numeric Type
  Dimensionless;                          !- Unit Type

OS:Schedule:Day,
  {daebe5e4-26d4-4935-99d3-a24664e0f008}, !- Handle
  0800|1800|MidriseApartment|default|rh |default, !- Name
  {f270ddaf-6c24-445b-9202-7c653e4278a3}, !- Schedule Type Limits Name
  ,                                       !- Interpolate to Timestep
  24,                                     !- Hour 1
  0,                                      !- Minute 1
  50;                                     !- Value Until Time 1

OS:Schedule:Day,
  {121c7560-cd46-4bcc-9fd7-cef247cb9cd8}, !- Handle
  0800|1800|MidriseApartment|default|rh Summer Design Day, !- Name
  {f270ddaf-6c24-445b-9202-7c653e4278a3}, !- Schedule Type Limits Name
  ,                                       !- Interpolate to Timestep
  24,                                     !- Hour 1
  0,                                      !- Minute 1
  50;                                     !- Value Until Time 1

OS:Schedule:Day,
  {e9c6b47a-65c3-4076-bc8a-485f1fc530b1}, !- Handle
  0800|1800|MidriseApartment|default|rh Winter Design Day, !- Name
  {f270ddaf-6c24-445b-9202-7c653e4278a3}, !- Schedule Type Limits Name
  ,                                       !- Interpolate to Timestep
  24,                                     !- Hour 1
  0,                                      !- Minute 1
  50;                                     !- Value Until Time 1

OS:Schedule:Ruleset,
  {ef691872-9baa-443b-bf47-fa3756a7e9f2}, !- Handle
  0800|1800|MidriseApartment|Office|lighting, !- Name
  {aa4fc5c1-89ad-46db-8ac4-a55a2aed8dcc}, !- Schedule Type Limits Name
  {ced77231-cbfd-4d2e-be82-bca97de92a81}, !- Default Day Schedule Name
  {528305da-0dc3-4279-b334-287934bd049f}, !- Summer Design Day Schedule Name
  {0fe7c60a-6d35-4059-b2f2-9cfa10775fce}; !- Winter Design Day Schedule Name

OS:Schedule:Day,
  {ced77231-cbfd-4d2e-be82-bca97de92a81}, !- Handle
  0800|1800|MidriseApartment|Office|lighting |default, !- Name
  {aa4fc5c1-89ad-46db-8ac4-a55a2aed8dcc}, !- Schedule Type Limits Name
  ,                                       !- Interpolate to Timestep
  8,                                      !- Hour 1
  0,                                      !- Minute 1
  0.18,                                   !- Value Until Time 1
  12,                                     !- Hour 2
  30,                                     !- Minute 2
  0.9,                                    !- Value Until Time 2
  13,                                     !- Hour 3
  30,                                     !- Minute 3
  0.8,                                    !- Value Until Time 3
  18,                                     !- Hour 4
  0,                                      !- Minute 4
  0.9,                                    !- Value Until Time 4
  24,                                     !- Hour 5
  0,                                      !- Minute 5
  0.18;                                   !- Value Until Time 5

OS:Schedule:Day,
  {528305da-0dc3-4279-b334-287934bd049f}, !- Handle
  0800|1800|MidriseApartment|Office|lighting Summer Design Day, !- Name
  {aa4fc5c1-89ad-46db-8ac4-a55a2aed8dcc}, !- Schedule Type Limits Name
  ,                                       !- Interpolate to Timestep
  8,                                      !- Hour 1
  0,                                      !- Minute 1
  0.18,                                   !- Value Until Time 1
  18,                                     !- Hour 2
  0,                                      !- Minute 2
  1,                                      !- Value Until Time 2
  24,                                     !- Hour 3
  0,                                      !- Minute 3
  0.18;                                   !- Value Until Time 3

OS:Schedule:Day,
  {0fe7c60a-6d35-4059-b2f2-9cfa10775fce}, !- Handle
  0800|1800|MidriseApartment|Office|lighting Winter Design Day, !- Name
  {aa4fc5c1-89ad-46db-8ac4-a55a2aed8dcc}, !- Schedule Type Limits Name
  ,                                       !- Interpolate to Timestep
  24,                                     !- Hour 1
  0,                                      !- Minute 1
  0.18;                                   !- Value Until Time 1

OS:Schedule:Ruleset,
  {c9c92d18-c5ec-41ac-8acc-2f153d98bdb1}, !- Handle
  0800|1800|MidriseApartment|default|elevator, !- Name
  {7740433f-b224-411f-96f6-3f2988e228d2}, !- Schedule Type Limits Name
  {144863fe-5291-4627-8028-43cbdf07d5d5}, !- Default Day Schedule Name
  {62c7e4a0-6f11-4d96-861f-74ba37f1aa25}, !- Summer Design Day Schedule Name
  {aaed72f8-09d0-4c50-869f-57ab8a43d05f}; !- Winter Design Day Schedule Name

OS:ScheduleTypeLimits,
  {7740433f-b224-411f-96f6-3f2988e228d2}, !- Handle
  Elevators Schedule Type Limits,         !- Name
  0,                                      !- Lower Limit Value {BasedOnField A4}
  1,                                      !- Upper Limit Value {BasedOnField A4}
  Continuous,                             !- Numeric Type
  Dimensionless;                          !- Unit Type

OS:Schedule:Day,
  {144863fe-5291-4627-8028-43cbdf07d5d5}, !- Handle
  0800|1800|MidriseApartment|default|elevator |default, !- Name
  {7740433f-b224-411f-96f6-3f2988e228d2}, !- Schedule Type Limits Name
  ,                                       !- Interpolate to Timestep
  4,                                      !- Hour 1
  0,                                      !- Minute 1
  0.05,                                   !- Value Until Time 1
  5,                                      !- Hour 2