
OS:Version,
  {863497ca-00c9-4bbd-a64f-7b5d1bcdee08}, !- Handle
  1.5.5;                                  !- Version Identifier

OS:ClimateZones,
  {135edfab-17e7-40db-a436-27d385a8cd6d}, !- Handle
  ,                                       !- Active Institution
  ,                                       !- Active Year
  ASHRAE,                                 !- Climate Zone Institution Name 1
  ANSI/ASHRAE Standard 169,               !- Climate Zone Document Name 1
  2006,                                   !- Climate Zone Document Year 1
  ,                                       !- Climate Zone Value 1
  CEC,                                    !- Climate Zone Institution Name 2
  California Climate Zone Descriptions,   !- Climate Zone Document Name 2
  1995,                                   !- Climate Zone Document Year 2
  ;                                       !- Climate Zone Value 2

OS:YearDescription,
  {513d8dda-86cb-442a-b01c-1f7f0e0ac70e}; !- Handle

OS:RadianceParameters,
  {270a96f1-3c86-4b75-a667-cdf22790e2c8}, !- Handle
  1,                                      !- Accumulated Rays per Record
  0,                                      !- Direct Threshold
  1,                                      !- Direct Certainty
  1,                                      !- Direct Jitter
  1,                                      !- Direct Pretest
  6,                                      !- Ambient Bounces VMX
  2,                                      !- Ambient Bounces DMX
  4050,                                   !- Ambient Divisions VMX
  512,                                    !- Ambient Divisions DMX
  256,                                    !- Ambient Supersamples
  0.001,                                  !- Limit Weight VMX
  0.001,                                  !- Limit Weight DMX
  500,                                    !- Klems Sampling Density
  146;                                    !- Sky Discretization Resolution

OS:SimulationControl,
  {2c487a4c-bac9-4ac5-b669-1e49d9da7c2b}, !- Handle
  ,                                       !- Do Zone Sizing Calculation
  ,                                       !- Do System Sizing Calculation
  ,                                       !- Do Plant Sizing Calculation
  No,                                     !- Run Simulation for Sizing Periods
  ,                                       !- Run Simulation for Weather File Run Periods
  0.04,                                   !- Loads Convergence Tolerance Value
  ,                                       !- Temperature Convergence Tolerance Value {deltaC}
  ,                                       !- Solar Distribution
  ,                                       !- Maximum Number of Warmup Days
  2;                                      !- Minimum Number of Warmup Days

OS:Sizing:Parameters,
  {dde5af6f-7923-4600-a28a-7556673a0266}, !- Handle
  1.25,                                   !- Heating Sizing Factor
  1.15;                                   !- Cooling Sizing Factor

OS:ProgramControl,
  {05027a99-f2b3-4aeb-afc6-1425fbb4371d}; !- Handle

OS:Timestep,
  {4ebc9f1e-4707-402e-9844-67eb1ffbd522}, !- Handle
  2;                                      !- Number of Timesteps per Hour

OS:OutputControl:ReportingTolerances,
  {65797aa2-06a9-45fe-b69d-bc6e060399d3}; !- Handle

OS:ConvergenceLimits,
  {9fc11aba-8822-4f3d-970c-46391ba4040d}; !- Handle

OS:ShadowCalculation,
  {ca758bea-4416-4626-9bba-3d8795c79bd6}, !- Handle
  7,                                      !- Calculation Frequency
  15000;                                  !- Maximum Figures in Shadow Overlap Calculations

OS:SurfaceConvectionAlgorithm:Inside,
  {aaabfc36-718a-4ab0-b622-f186ebb45230}, !- Handle
  TARP;                                   !- Algorithm

OS:SurfaceConvectionAlgorithm:Outside,
  {9a0a9f6f-4bbd-4b12-a121-9492a1fcd7d6}, !- Handle
  DOE-2;                                  !- Algorithm

OS:HeatBalanceAlgorithm,
  {9d93e563-e1e0-46d7-9e39-d1c8aceb7212}, !- Handle
  ConductionTransferFunction,             !- Algorithm
  200;                                    !- Surface Temperature Upper Limit {F}

OS:ZoneAirHeatBalanceAlgorithm,
  {8520d93e-310f-4696-9bcd-36228bfdd743}, !- Handle
  AnalyticalSolution;                     !- Algorithm

OS:ZoneAirContaminantBalance,
  {eb5fc3ae-fb22-4160-8fcb-3e3b22b000d3}; !- Handle

OS:ZoneCapacitanceMultiplier:ResearchSpecial,
  {4020ce4f-5a7a-4849-8028-8305d7b751b1}, !- Handle
  ,                                       !- Temperature Capacity Multiplier
  ,                                       !- Humidity Capacity Multiplier
  ;                                       !- Carbon Dioxide Capacity Multiplier

OS:RunPeriod,
  {28df894d-6af9-4fb8-8f56-df1753344aa3}, !- Handle
  Run Period 1,                           !- Name
  1,                                      !- Begin Month
  1,                                      !- Begin Day of Month
  12,                                     !- End Month
  31,                                     !- End Day of Month
  ,                                       !- Use Weather File Holidays and Special Days
  ,                                       !- Use Weather File Daylight Saving Period
  ,                                       !- Apply Weekend Holiday Rule
  ,                                       !- Use Weather File Rain Indicators
  ,                                       !- Use Weather File Snow Indicators
  ;                                       !- Number of Times Runperiod to be Repeated

OS:Building,
  {bf305633-c5a1-4881-9edf-ca5e1a8e1274}, !- Handle
  Building 1,                             !- Name
  ,                                       !- Building Sector Type
  ,                                       !- North Axis {deg}
  ,                                       !- Nominal Floor to Floor Height {m}
  ,                                       !- Space Type Name
  ,                                       !- Default Construction Set Name
  {77f286af-4c0c-40f4-8f8d-a9307fe1fa78}, !- Default Schedule Set Name
  ,                                       !- Standards Number of Stories
  ,                                       !- Standards Number of Above Ground Stories
  MidriseApartment;                       !- Standards Building Type

OS:LifeCycleCost:Parameters,
  {231cf8a0-f0e7-4251-a99f-11f0d464e661}, !- Handle
  FEMP,                                   !- Analysis Type
  ,                                       !- Discounting Convention
  ,                                       !- Inflation Approach
  ,                                       !- Real Discount Rate
  ,                                       !- Nominal Discount Rate
  ,                                       !- Inflation
  ,                                       !- Base Date Month
  ,                                       !- Base Date Year
  ,                                       !- Service Date Month
  ,                                       !- Service Date Year
  ,                                       !- Length of Study Period in Years
  ,                                       !- Tax Rate
  ,                                       !- Depreciation Method
  Yes;                                    !- Use NIST Fuel Escalation Rates

OS:Facility,
  {3ba8e45b-b833-44eb-a723-ea6c3946dc96}; !- Handle

OS:SpaceType,
  {f4d13b6c-dfea-4fab-ac96-5f1391905c23}, !- Handle
  MidriseApartment|BlendA|DOE Ref 2004|ASHRAE 169-2006-5A, !- Name
  {a54234b4-fcb0-4e6f-a8f0-d14e2aecdbb6}, !- Default Construction Set Name
  ,                                       !- Default Schedule Set Name
  {a51156c3-ebec-4f24-85c5-aa7d147950fd}, !- Group Rendering Name
  {534192e1-f95e-465e-947a-4f485256ef6b}, !- Design Specification Outdoor Air Object Name
  MidriseApartment,                       !- Standards Building Type
  BlendA;                                 !- Standards Space Type

OS:Rendering:Color,
  {a51156c3-ebec-4f24-85c5-aa7d147950fd}, !- Handle
  Rendering Color 1,                      !- Name
  78,                                     !- Rendering Red Value
  167,                                    !- Rendering Green Value
  222;                                    !- Rendering Blue Value

OS:SpaceType,
  {1a04edef-cf39-4b1f-967f-c9c6432769f4}, !- Handle
  MidriseApartment|Office|DOE Ref 2004|ASHRAE 169-2006-5A, !- Name
  {a54234b4-fcb0-4e6f-a8f0-d14e2aecdbb6}, !- Default Construction Set Name
  {595bcf02-e7a2-40f7-9e4a-b6e0333d067b}, !- Default Schedule Set Name
  {724af344-2310-41d0-90da-336d6315a031}, !- Group Rendering Name
  {a9c8bd8f-b4c1-4ff3-99a9-ae1bb4bc9ac0}, !- Design Specification Outdoor Air Object Name
  MidriseApartment,                       !- Standards Building Type
  Office;                                 !- Standards Space Type

OS:Rendering:Color,
  {724af344-2310-41d0-90da-336d6315a031}, !- Handle
  Rendering Color 2,                      !- Name
  120,                                    !- Rendering Red Value
  230,                                    !- Rendering Green Value
  199;                                    !- Rendering Blue Value

OS:Schedule:Ruleset,
  {4902f0ba-ecff-4307-ba95-5747381a9f39}, !- Handle
  0800|1800|MidriseApartment|default|hoo, !- Name
  {8bfe946d-7de5-4d13-9982-dfe8e2c31259}, !- Schedule Type Limits Name
  {56cd85ed-0445-4357-8bde-25b87d595cd6}, !- Default Day Schedule Name
  {53f3a27b-ab93-419a-9bc6-42f94e7d1883}, !- Summer Design Day Schedule Name
  {9b9fd3ed-8b6c-4242-bf4f-0c78ae0a4d2a}; !- Winter Design Day Schedule Name

OS:Schedule:Day,
  {56cd85ed-0445-4357-8bde-25b87d595cd6}, !- Handle
  0800|1800|MidriseApartment|default|hoo Schedule Week Day, !- Name
  {8bfe946d-7de5-4d13-9982-dfe8e2c31259}, !- Schedule Type Limits Name
  ,                                       !- Interpolate to Timestep
  8,                                      !- Hour 1
  0,                                      !- Minute 1
  0,                                      !- Value Until Time 1
  18,                                     !- Hour 2
  0,                                      !- Minute 2
  1,                                      !- Value Until Time 2
  24,                                     !- Hour 3
  0,                                      !- Minute 3
  0;                                      !- Value Until Time 3

OS:Schedule:Day,
  {fe048bc3-6701-4bb9-937c-5cec05d02be3}, !- Handle
  Schedule Day 2,                         !- Name
  ,                                       !- Schedule Type Limits Name
  ,                                       !- Interpolate to Timestep
  24,                                     !- Hour 1
  0,                                      !- Minute 1
  0;                                      !- Value Until Time 1

OS:Schedule:Day,
  {9b9fd3ed-8b6c-4242-bf4f-0c78ae0a4d2a}, !- Handle
  0800|1800|MidriseApartment|default|hoo Winter Design Day, !- Name
  {8bfe946d-7de5-4d13-9982-dfe8e2c31259}, !- Schedule Type Limits Name
  ,                                       !- Interpolate to Timestep
  24,                                     !- Hour 1
  0,                                      !- Minute 1
  0;                                      !- Value Until Time 1

OS:Schedule:Day,
  {2ee60837-f256-448d-8571-0ec451d3f4d0}, !- Handle
  Schedule Day 3,                         !- Name
  ,                                       !- Schedule Type Limits Name
  ,                                       !- Interpolate to Timestep
  24,                                     !- Hour 1
  0,                                      !- Minute 1
  0;                                      !- Value Until Time 1

OS:Schedule:Day,
  {53f3a27b-ab93-419a-9bc6-42f94e7d1883}, !- Handle
  0800|1800|MidriseApartment|default|hoo Summer Design Day, !- Name
  {8bfe946d-7de5-4d13-9982-dfe8e2c31259}, !- Schedule Type Limits Name
  ,                                       !- Interpolate to Timestep
  24,                                     !- Hour 1
  0,                                      !- Minute 1
  1;                                      !- Value Until Time 1

OS:DefaultScheduleSet,
  {77f286af-4c0c-40f4-8f8d-a9307fe1fa78}, !- Handle
  Building Hours of Operation,            !- Name
  {4902f0ba-ecff-4307-ba95-5747381a9f39}, !- Hours of Operation Schedule Name
  ,                                       !- Number of People Schedule Name
  ,                                       !- People Activity Level Schedule Name
  ,                                       !- Lighting Schedule Name
  ,                                       !- Electric Equipment Schedule Name
  ,                                       !- Gas Equipment Schedule Name
  ,                                       !- Hot Water Equipment Schedule Name
  ,                                       !- Infiltration Schedule Name
  ,                                       !- Steam Equipment Schedule Name
  ;                                       !- Other Equipment Schedule Name

OS:ScheduleTypeLimits,
  {8bfe946d-7de5-4d13-9982-dfe8e2c31259}, !- Handle
  OnOff,                                  !- Name
  0,                                      !- Lower Limit Value {BasedOnField A4}
  1,                                      !- Upper Limit Value {BasedOnField A4}
  Discrete,                               !- Numeric Type
  Availability;                           !- Unit Type

OS:Schedule:Ruleset,
  {eb2bd32e-04dc-49e7-befe-8552ff9b76d3}, !- Handle
  0800|1800|MidriseApartment|xApartment|lighting, !- Name
  {2183d0cf-5d2c-48e2-9117-a4ba0b8105e0}, !- Schedule Type Limits Name
  {fc86ad83-326f-45f4-a1d2-075728ce31b7}, !- Default Day Schedule Name
  {6be3672e-8afd-475b-9072-e4065be8c4a2}, !- Summer Design Day Schedule Name
  {f8415977-eb61-4025-8e79-715c5fff1c7f}; !- Winter Design Day Schedule Name

OS:ScheduleTypeLimits,
  {2183d0cf-5d2c-48e2-9117-a4ba0b8105e0}, !- Handle
  Lights Schedule Type Limits,            !- Name
  0,                                      !- Lower Limit Value {BasedOnField A4}
  1,                                      !- Upper Limit Value {BasedOnField A4}
  Continuous,                             !- Numeric Type
  Dimensionless;                          !- Unit Type

OS:Schedule:Day,
  {fc86ad83-326f-45f4-a1d2-075728ce31b7}, !- Handle
  0800|1800|MidriseApartment|xApartment|lighting |default, !- Name
  {2183d0cf-5d2c-48e2-9117-a4ba0b8105e0}, !- Schedule Type Limits Name
  ,                                       !- Interpolate to Timestep
  4,                                      !- Hour 1
  0,                                      !- Minute 1
  0.07,                                   !- Value Until Time 1
  5,                                      !- Hour 2
  0,                                      !- Minute 2
  0.19,                                   !- Value Until Time 2
  6,                                      !- Hour 3
  0,                                      !- Minute 3
  0.39,                                   !- Value Until Time 3
  7,                                      !- Hour 4
  0,                                      !- Minute 4
  0.44,                                   !- Value Until Time 4
  8,                                      !- Hour 5
  0,                                      !- Minute 5
  0.39,                                   !- Value Until Time 5
  9,                                      !- Hour 6
  0,                                      !- Minute 6
  0.17,                                   !- Value Until Time 6
  15,                                     !- Hour 7
  0,                                      !- Minute 7
  0.12,                                   !- Value Until Time 7
  16,                                     !- Hour 8
  0,                                      !- Minute 8
  0.21,                                   !- Value Until Time 8
  17,                                     !- Hour 9
  0,                                      !- Minute 9
  0.44,                                   !- Value Until Time 9
  18,                                     !- Hour 10
  0,                                      !- Minute 10
  0.62,                                   !- Value Until Time 10
  19,                                     !- Hour 11
  0,                                      !- Minute 11
  0.83,                                   !- Value Until Time 11
  20,                                     !- Hour 12
  0,                                      !- Minute 12
  0.99,                                   !- Value Until Time 12
  21,                                     !- Hour 13
  0,                                      !- Minute 13
  1,                                      !- Value Until Time 13
  22,                                     !- Hour 14
  0,                                      !- Minute 14
  0.69,                                   !- Value Until Time 14
  23,                                     !- Hour 15
  0,                                      !- Minute 15
  0.38,                                   !- Value Until Time 15
  24,                                     !- Hour 16
  0,                                      !- Minute 16
  0.16;                                   !- Value Until Time 16

OS:Schedule:Day,
  {6be3672e-8afd-475b-9072-e4065be8c4a2}, !- Handle
  0800|1800|MidriseApartment|xApartment|lighting Summer Design Day, !- Name
  {2183d0cf-5d2c-48e2-9117-a4ba0b8105e0}, !- Schedule Type Limits Name
  ,                                       !- Interpolate to Timestep
  4,                                      !- Hour 1
  0,                                      !- Minute 1
  0.07,                                   !- Value Until Time 1
  5,                                      !- Hour 2
  0,                                      !- Minute 2
  0.19,                                   !- Value Until Time 2
  8,                                      !- Hour 3
  0,                                      !- Minute 3
  1,                                      !- Value Until Time 3
  9,                                      !- Hour 4
  0,                                      !- Minute 4
  0.17,                                   !- Value Until Time 4
  15,                                     !- Hour 5
  0,                                      !- Minute 5
  0.12,                                   !- Value Until Time 5
  16,                                     !- Hour 6
  0,                                      !- Minute 6
  0.21,                                   !- Value Until Time 6
  23,                                     !- Hour 7
  0,                                      !- Minute 7
  1,                                      !- Value Until Time 7
  24,                                     !- Hour 8
  0,                                      !- Minute 8
  0.16;                                   !- Value Until Time 8

OS:Schedule:Day,
  {f8415977-eb61-4025-8e79-715c5fff1c7f}, !- Handle
  0800|1800|MidriseApartment|xApartment|lighting Winter Design Day, !- Name
  {2183d0cf-5d2c-48e2-9117-a4ba0b8105e0}, !- Schedule Type Limits Name
  ,                                       !- Interpolate to Timestep
  24,                                     !- Hour 1
  0,                                      !- Minute 1
  0.07;                                   !- Value Until Time 1

OS:Schedule:Ruleset,
  {f4e7a881-b514-406c-9052-1359665296cb}, !- Handle
  0800|1800|MidriseApartment|default|clg_setpoint, !- Name
  {d7bd2cde-119d-4a1b-9984-191e9c81593a}, !- Schedule Type Limits Name
  {088cd515-df48-4c46-9751-474c855495aa}, !- Default Day Schedule Name
  {b0f3e5a1-b5e1-4db2-b843-f327d4c5eb09}, !- Summer Design Day Schedule Name
  {84d3a451-f4d5-4fd5-b88a-b6ade04930e2}; !- Winter Design Day Schedule Name

OS:ScheduleTypeLimits,
  {d7bd2cde-119d-4a1b-9984-191e9c81593a}, !- Handle
  Thermostat Cooling Setpoint Schedule Type Limits, !- Name
  0,                                      !- Lower Limit Value {BasedOnField A4}
  100,                                    !- Upper Limit Value {BasedOnField A4}
  Continuous,                             !- Numeric Type
  Temperature;                            !- Unit Type

OS:Schedule:Day,
  {088cd515-df48-4c46-9751-474c855495aa}, !- Handle
  0800|1800|MidriseApartment|default|clg_setpoint |default, !- Name
  {d7bd2cde-119d-4a1b-9984-191e9c81593a}, !- Schedule Type Limits Name
  ,                                       !- Interpolate to Timestep
  24,                                     !- Hour 1
  0,                                      !- Minute 1
  23.8888888888889;                       !- Value Until Time 1

OS:Schedule:Day,
  {b0f3e5a1-b5e1-4db2-b843-f327d4c5eb09}, !- Handle
  0800|1800|MidriseApartment|default|clg_setpoint Summer Design Day, !- Name
  {d7bd2cde-119d-4a1b-9984-191e9c81593a}, !- Schedule Type Limits Name
  ,                                       !- Interpolate to Timestep
  24,                                     !- Hour 1
  0,                                      !- Minute 1
  23.8888888888889;                       !- Value Until Time 1

OS:Schedule:Day,
  {84d3a451-f4d5-4fd5-b88a-b6ade04930e2}, !- Handle
  0800|1800|MidriseApartment|default|clg_setpoint Winter Design Day, !- Name
  {d7bd2cde-119d-4a1b-9984-191e9c81593a}, !- Schedule Type Limits Name
  ,                                       !- Interpolate to Timestep
  24,                                     !- Hour 1
  0,                                      !- Minute 1
  23.8888888888889;                       !- Value Until Time 1

OS:Schedule:Ruleset,
  {382fca32-2bf6-4270-8447-06fd6904c667}, !- Handle
  0800|1800|MidriseApartment|default|work_eff, !- Name
  {969b5a33-827e-4b8a-a6df-a3541ba9be77}, !- Schedule Type Limits Name
  {8d867b48-ac7c-45cc-8153-b9f48bf88a6d}, !- Default Day Schedule Name
  {aa3278ba-6a39-4581-8bfb-b449d72234fe}, !- Summer Design Day Schedule Name
  {75da30a4-f20a-428a-9665-07a818a1be95}; !- Winter Design Day Schedule Name

OS:ScheduleTypeLimits,
  {969b5a33-827e-4b8a-a6df-a3541ba9be77}, !- Handle
  Fraction Schedule Type Limits,          !- Name
  0,                                      !- Lower Limit Value {BasedOnField A4}
  1,                                      !- Upper Limit Value {BasedOnField A4}
  Continuous,                             !- Numeric Type
  Dimensionless;                          !- Unit Type

OS:Schedule:Day,
  {8d867b48-ac7c-45cc-8153-b9f48bf88a6d}, !- Handle
  0800|1800|MidriseApartment|default|work_eff |default, !- Name
  {969b5a33-827e-4b8a-a6df-a3541ba9be77}, !- Schedule Type Limits Name
  ,                                       !- Interpolate to Timestep
  24,                                     !- Hour 1
  0,                                      !- Minute 1
  0;                                      !- Value Until Time 1

OS:Schedule:Day,
  {aa3278ba-6a39-4581-8bfb-b449d72234fe}, !- Handle
  0800|1800|MidriseApartment|default|work_eff Summer Design Day, !- Name
  {969b5a33-827e-4b8a-a6df-a3541ba9be77}, !- Schedule Type Limits Name
  ,                                       !- Interpolate to Timestep
  24,                                     !- Hour 1
  0,                                      !- Minute 1
  0;                                      !- Value Until Time 1

OS:Schedule:Day,
  {75da30a4-f20a-428a-9665-07a818a1be95}, !- Handle
  0800|1800|MidriseApartment|default|work_eff Winter Design Day, !- Name
  {969b5a33-827e-4b8a-a6df-a3541ba9be77}, !- Schedule Type Limits Name
  ,                                       !- Interpolate to Timestep
  24,                                     !- Hour 1
  0,                                      !- Minute 1
  0;                                      !- Value Until Time 1

OS:Schedule:Ruleset,
  {3fd0cf36-79b3-43c8-90ab-9d87414c657f}, !- Handle
  0800|1800|MidriseApartment|default|rh,  !- Name
  {97abe73c-dff4-4694-beab-758971c8a2a9}, !- Schedule Type Limits Name
  {f3da5897-1174-4581-ba5d-2a8501ba3410}, !- Default Day Schedule Name
  {a9eae1c6-74dd-4764-a6be-36c66e220fc9}, !- Summer Design Day Schedule Name
  {010cce7a-7924-44dd-93a0-e9e0bab7ea93}; !- Winter Design Day Schedule Name

OS:ScheduleTypeLimits,
  {97abe73c-dff4-4694-beab-758971c8a2a9}, !- Handle
  Dimensionless Schedule Type Limits,     !- Name
  ,                                       !- Lower Limit Value {BasedOnField A4}
  ,                                       !- Upper Limit Value {BasedOnField A4}
  Continuous,                             !- Numeric Type
  Dimensionless;                          !- Unit Type

OS:Schedule:Day,
  {f3da5897-1174-4581-ba5d-2a8501ba3410}, !- Handle
  0800|1800|MidriseApartment|default|rh |default, !- Name
  {97abe73c-dff4-4694-beab-758971c8a2a9}, !- Schedule Type Limits Name
  ,                                       !- Interpolate to Timestep
  24,                                     !- Hour 1
  0,                                      !- Minute 1
  50;                                     !- Value Until Time 1

OS:Schedule:Day,
  {a9eae1c6-74dd-4764-a6be-36c66e220fc9}, !- Handle
  0800|1800|MidriseApartment|default|rh Summer Design Day, !- Name
  {97abe73c-dff4-4694-beab-758971c8a2a9}, !- Schedule Type Limits Name
  ,                                       !- Interpolate to Timestep
  24,                                     !- Hour 1
  0,                                      !- Minute 1
  50;                                     !- Value Until Time 1

OS:Schedule:Day,
  {010cce7a-7924-44dd-93a0-e9e0bab7ea93}, !- Handle
  0800|1800|MidriseApartment|default|rh Winter Design Day, !- Name
  {97abe73c-dff4-4694-beab-758971c8a2a9}, !- Schedule Type Limits Name
  ,                                       !- Interpolate to Timestep
  24,                                     !- Hour 1
  0,                                      !- Minute 1
  50;                                     !- Value Until Time 1

OS:Schedule:Ruleset,
  {120a65f2-5be7-45cf-bb91-7926ddaa1873}, !- Handle
  0800|1800|MidriseApartment|Office|lighting, !- Name
  {2183d0cf-5d2c-48e2-9117-a4ba0b8105e0}, !- Schedule Type Limits Name
  {8b8df1fd-a1f1-436e-aba1-cfddbfa33237}, !- Default Day Schedule Name
  {f7ec58ee-7da2-4d25-8c8c-b7de1bc2fe3f}, !- Summer Design Day Schedule Name
  {e8ace2ea-e69d-48cf-add9-2393fb108ab5}; !- Winter Design Day Schedule Name

OS:Schedule:Day,
  {8b8df1fd-a1f1-436e-aba1-cfddbfa33237}, !- Handle
  0800|1800|MidriseApartment|Office|lighting |default, !- Name
  {2183d0cf-5d2c-48e2-9117-a4ba0b8105e0}, !- Schedule Type Limits Name
  ,                                       !- Interpolate to Timestep
  8,                                      !- Hour 1
  0,                                      !- Minute 1
  0.18,                                   !- Value Until Time 1
  12,                                     !- Hour 2
  30,                                     !- Minute 2
  0.9,                                    !- Value Until Time 2
  13,                                     !- Hour 3
  30,                                     !- Minute 3
  0.8,                                    !- Value Until Time 3
  18,                                     !- Hour 4
  0,                                      !- Minute 4
  0.9,                                    !- Value Until Time 4
  24,                                     !- Hour 5
  0,                                      !- Minute 5
  0.18;                                   !- Value Until Time 5

OS:Schedule:Day,
  {f7ec58ee-7da2-4d25-8c8c-b7de1bc2fe3f}, !- Handle
  0800|1800|MidriseApartment|Office|lighting Summer Design Day, !- Name
  {2183d0cf-5d2c-48e2-9117-a4ba0b8105e0}, !- Schedule Type Limits Name
  ,                                       !- Interpolate to Timestep
  8,                                      !- Hour 1
  0,                                      !- Minute 1
  0.18,                                   !- Value Until Time 1
  18,                                     !- Hour 2
  0,                                      !- Minute 2
  1,                                      !- Value Until Time 2
  24,                                     !- Hour 3
  0,                                      !- Minute 3
  0.18;                                   !- Value Until Time 3

OS:Schedule:Day,
  {e8ace2ea-e69d-48cf-add9-2393fb108ab5}, !- Handle
  0800|1800|MidriseApartment|Office|lighting Winter Design Day, !- Name
  {2183d0cf-5d2c-48e2-9117-a4ba0b8105e0}, !- Schedule Type Limits Name
  ,                                       !- Interpolate to Timestep
  24,                                     !- Hour 1
  0,                                      !- Minute 1
  0.18;                                   !- Value Until Time 1

OS:Schedule:Ruleset,
  {a232d474-697e-4fa0-928b-d460a0320c43}, !- Handle
  0800|1800|MidriseApartment|default|elevator, !- Name
  {acc355d2-23a6-4794-a5a7-bda2736e9a50}, !- Schedule Type Limits Name
  {6559d909-da52-4944-a7cd-f8326072b0fc}, !- Default Day Schedule Name
  {4b3c5401-6983-4413-966d-c96b2e025411}, !- Summer Design Day Schedule Name
  {98a21194-97f6-410c-80bd-e8f1cfaff69f}; !- Winter Design Day Schedule Name

OS:ScheduleTypeLimits,
  {acc355d2-23a6-4794-a5a7-bda2736e9a50}, !- Handle
  Elevators Schedule Type Limits,         !- Name
  0,                                      !- Lower Limit Value {BasedOnField A4}
  1,                                      !- Upper Limit Value {BasedOnField A4}
  Continuous,                             !- Numeric Type
  Dimensionless;                          !- Unit Type

OS:Schedule:Day,
  {6559d909-da52-4944-a7cd-f8326072b0fc}, !- Handle
  0800|1800|MidriseApartment|default|elevator |default, !- Name
  {acc355d2-23a6-4794-a5a7-bda2736e9a50}, !- Schedule Type Limits Name
  ,                                       !- Interpolate to Timestep
  4,                                      !- Hour 1
  0,                                      !- Minute 1
  0.05,                                   !- Value Until Time 1
  5,                                      !- Hour 2