
OS:Version,
  {fb7a7003-9c6c-4f11-833a-c0cf55657346}, !- Handle
  1.5.5;                                  !- Version Identifier

OS:ClimateZones,
  {4f03a64e-3ec2-4524-a48c-338d3dd725da}, !- Handle
  ,                                       !- Active Institution
  ,                                       !- Active Year
  ASHRAE,                                 !- Climate Zone Institution Name 1
  ANSI/ASHRAE Standard 169,               !- Climate Zone Document Name 1
  2006,                                   !- Climate Zone Document Year 1
  ,                                       !- Climate Zone Value 1
  CEC,                                    !- Climate Zone Institution Name 2
  California Climate Zone Descriptions,   !- Climate Zone Document Name 2
  1995,                                   !- Climate Zone Document Year 2
  ;                                       !- Climate Zone Value 2

OS:LifeCycleCost:Parameters,
  {f579308b-a664-41db-91d3-56d1d9ada97b}, !- Handle
  FEMP,                                   !- Analysis Type
  ,                                       !- Discounting Convention
  ,                                       !- Inflation Approach
  ,                                       !- Real Discount Rate
  ,                                       !- Nominal Discount Rate
  ,                                       !- Inflation
  ,                                       !- Base Date Month
  ,                                       !- Base Date Year
  ,                                       !- Service Date Month
  ,                                       !- Service Date Year
  ,                                       !- Length of Study Period in Years
  ,                                       !- Tax Rate
  ,                                       !- Depreciation Method
  Yes;                                    !- Use NIST Fuel Escalation Rates

OS:YearDescription,
  {37349919-6e7a-4963-ac42-33c4a14fca5c}; !- Handle

OS:Building,
  {f6339c9f-0a1c-4bdd-802d-6962c9c7ee69}, !- Handle
  Building 1,                             !- Name
  ,                                       !- Building Sector Type
  ,                                       !- North Axis {deg}
  ,                                       !- Nominal Floor to Floor Height {m}
  ,                                       !- Space Type Name
  ,                                       !- Default Construction Set Name
  ;                                       !- Default Schedule Set Name

OS:Facility,
  {de2eb7d5-35d0-4dba-b22d-3f5073e7ce61}; !- Handle

OS:SpaceType,
  {b675efe0-df7e-425e-ae48-da25d2f75c30}, !- Handle
  Office|BlendA|DOE Ref 2004|ASHRAE 169-2006-5A, !- Name
  {9fdba4d6-425a-43f7-9e2d-8e1eca035396}, !- Default Construction Set Name
  ,                                       !- Default Schedule Set Name
  {f0d6f488-318d-4317-a684-59266099902b}, !- Group Rendering Name
  {8f40686e-7fcf-4e83-8199-35dd6993306e}, !- Design Specification Outdoor Air Object Name
  Office,                                 !- Standards Building Type
  BlendA;                                 !- Standards Space Type

OS:DefaultConstructionSet,
  {9fdba4d6-425a-43f7-9e2d-8e1eca035396}, !- Handle
  DOE Ref 2004|ASHRAE 169-2006-5A|Office, !- Name
  {048be4a4-2ce5-4f28-a439-8cad914815cf}, !- Default Exterior Surface Constructions Name
  {ccaba4e2-f938-430a-99d6-a3a9b85f835c}, !- Default Interior Surface Constructions Name
  {640ac254-d4f5-4757-93df-6439ce7b2537}, !- Default Ground Contact Surface Constructions Name
  {ba9813ed-539b-4bb8-864c-4be843d20f2e}, !- Default Exterior SubSurface Constructions Name
  {62c234f2-c9a7-4c09-a63c-901fec91eb3c}, !- Default Interior SubSurface Constructions Name
  {3e670624-fbdd-4bf5-a253-c6d52855bb76}, !- Interior Partition Construction Name
  ,                                       !- Space Shading Construction Name
  ,                                       !- Building Shading Construction Name
  ;                                       !- Site Shading Construction Name

OS:Rendering:Color,
  {f0d6f488-318d-4317-a684-59266099902b}, !- Handle
  Rendering Color 1,                      !- Name
  120,                                    !- Rendering Red Value
  230,                                    !- Rendering Green Value
  199;                                    !- Rendering Blue Value

OS:DesignSpecification:OutdoorAir,
  {8f40686e-7fcf-4e83-8199-35dd6993306e}, !- Handle
  Office|BlendA|DOE Ref 2004|ASHRAE 169-2006-5A|OutdoorAir, !- Name
  Sum,                                    !- Outdoor Air Method
  0.00911075175468151,                    !- Outdoor Air Flow per Person {m3/s-person}
  0,                                      !- Outdoor Air Flow per Floor Area {m3/s-m2}
  ,                                       !- Outdoor Air Flow Rate {m3/s}
  0,                                      !- Outdoor Air Flow Air Changes per Hour {1/hr}
  ;                                       !- Outdoor Air Flow Rate Fraction Schedule Name

OS:DefaultSurfaceConstructions,
  {048be4a4-2ce5-4f28-a439-8cad914815cf}, !- Handle
  DOE Ref 2004|ASHRAE 169-2006-5A|Office|ext_surf, !- Name
  {0d53d192-2bc8-4c43-93f8-4ff2d01c984a}, !- Floor Construction Name
  {e9c43dca-f726-426b-810a-a5e1c0a88052}, !- Wall Construction Name
  {1d190d29-68e8-4ab6-958d-5be2d3ad7d5b}; !- Roof Ceiling Construction Name

OS:DefaultSurfaceConstructions,
  {ccaba4e2-f938-430a-99d6-a3a9b85f835c}, !- Handle
  DOE Ref 2004|ASHRAE 169-2006-5A|Office|int_surf, !- Name
  {072e9019-b6b5-4587-b82b-42a5b30c209f}, !- Floor Construction Name
  {ac457e3c-008e-4848-90d4-d29d0ec7e466}, !- Wall Construction Name
  {9817067b-1803-44c4-9a2d-ec4345bb9f54}; !- Roof Ceiling Construction Name

OS:DefaultSurfaceConstructions,
  {640ac254-d4f5-4757-93df-6439ce7b2537}, !- Handle
  DOE Ref 2004|ASHRAE 169-2006-5A|Office|ground_surf, !- Name
  {0d53d192-2bc8-4c43-93f8-4ff2d01c984a}, !- Floor Construction Name
  {0d53d192-2bc8-4c43-93f8-4ff2d01c984a}, !- Wall Construction Name
  {0d53d192-2bc8-4c43-93f8-4ff2d01c984a}; !- Roof Ceiling Construction Name

OS:DefaultSubSurfaceConstructions,
  {ba9813ed-539b-4bb8-864c-4be843d20f2e}, !- Handle
  DOE Ref 2004|ASHRAE 169-2006-5A|Office|ext_sub, !- Name
  {48f1a503-b1eb-4492-87e6-19b7b3708d0a}, !- Fixed Window Construction Name
  {48f1a503-b1eb-4492-87e6-19b7b3708d0a}, !- Operable Window Construction Name
  {664d7afc-0b6d-431e-9101-f801298a8290}, !- Door Construction Name
  ,                                       !- Glass Door Construction Name
  {09c438ec-dc9b-4813-8ee7-1aca57a289d8}, !- Overhead Door Construction Name
  {4f8e5e8a-850a-455a-b67f-8b60670d7698}, !- Skylight Construction Name
  {e7fdec9f-bab8-4949-9929-e9193fc09ced}, !- Tubular Daylight Dome Construction Name
  {e7fdec9f-bab8-4949-9929-e9193fc09ced}; !- Tubular Daylight Diffuser Construction Name

OS:DefaultSubSurfaceConstructions,
  {62c234f2-c9a7-4c09-a63c-901fec91eb3c}, !- Handle
  DOE Ref 2004|ASHRAE 169-2006-5A|Office|int_sub, !- Name
  {e7fdec9f-bab8-4949-9929-e9193fc09ced}, !- Fixed Window Construction Name
  {e7fdec9f-bab8-4949-9929-e9193fc09ced}, !- Operable Window Construction Name
  {13c68d60-a2f9-4dc7-93af-04d73713e223}, !- Door Construction Name
  ,                                       !- Glass Door Construction Name
  ,                                       !- Overhead Door Construction Name
  ,                                       !- Skylight Construction Name
  ,                                       !- Tubular Daylight Dome Construction Name
  ;                                       !- Tubular Daylight Diffuser Construction Name

OS:Construction,
  {3e670624-fbdd-4bf5-a253-c6d52855bb76}, !- Handle
  Interior Partition,                     !- Name
  ,                                       !- Surface Rendering Name
  {09d74bdb-c20a-44e1-84f0-170ab5983977}; !- Layer 1

OS:StandardsInformation:Construction,
  {d517ef3a-60b1-441f-880a-0b44fe53d0f9}, !- Handle
  {3e670624-fbdd-4bf5-a253-c6d52855bb76}, !- Construction Name
  InteriorPartition,                      !- Intended Surface Type
  ;                                       !- Standards Construction Type

OS:Construction,
  {0d53d192-2bc8-4c43-93f8-4ff2d01c984a}, !- Handle
  ExtSlabCarpet 4in ClimateZone 1-8,      !- Name
  ,                                       !- Surface Rendering Name
  {a371c395-b937-4183-9861-3500288d3065}, !- Layer 1
  {d73146ef-f9e4-4096-a4a7-8a5e7b089a57}; !- Layer 2

OS:StandardsInformation:Construction,
  {fb20f24a-2889-4195-abfb-a59ffaf6f46c}, !- Handle
  {0d53d192-2bc8-4c43-93f8-4ff2d01c984a}, !- Construction Name
  ExteriorFloor,                          !- Intended Surface Type
  ;                                       !- Standards Construction Type

OS:Construction,
  {e9c43dca-f726-426b-810a-a5e1c0a88052}, !- Handle
  ASHRAE 90.1-2004 ExtWall Mass ClimateZone 5, !- Name
  ,                                       !- Surface Rendering Name
  {023eb6f6-6a78-4eae-b648-79ec2434e8e6}, !- Layer 1
  {b995f9e3-edd9-4324-9913-f4878735fc99}, !- Layer 2
  {15b14615-7d32-44f4-a7c1-56fd0383a242}, !- Layer 3
  {31a99222-c76a-4f29-bcc6-936102f76091}; !- Layer 4

OS:StandardsInformation:Construction,
  {0c15b0f3-1e5a-4631-a50b-320663e044c8}, !- Handle
  {e9c43dca-f726-426b-810a-a5e1c0a88052}, !- Construction Name
  ExteriorWall,                           !- Intended Surface Type
  Mass;                                   !- Standards Construction Type

OS:Construction,
  {1d190d29-68e8-4ab6-958d-5be2d3ad7d5b}, !- Handle
  ASHRAE 90.1-2004 ExtRoof IEAD ClimateZone 5-6, !- Name
  ,                                       !- Surface Rendering Name
  {ab3ee14d-e0ad-4ff0-be41-abbd99b61f0d}, !- Layer 1
  {cb4b6ab8-dfea-46a7-a899-d50e30f9ce22}, !- Layer 2
  {e62bfd1c-d1de-45ba-97b8-b37bd69d8f63}; !- Layer 3

OS:StandardsInformation:Construction,
  {7cc09c55-2bef-4969-8426-8705826c6717}, !- Handle
  {1d190d29-68e8-4ab6-958d-5be2d3ad7d5b}, !- Construction Name
  ExteriorRoof,                           !- Intended Surface Type
  IEAD;                                   !- Standards Construction Type

OS:Construction,
  {072e9019-b6b5-4587-b82b-42a5b30c209f}, !- Handle
  Interior Floor,                         !- Name
  ,                                       !- Surface Rendering Name
  {7430942b-a2e2-4667-bff3-f10ecbdd92ba}, !- Layer 1
  {e339a08d-5937-4b53-af36-e570842e14be}, !- Layer 2
  {9cb3daa7-626b-4cf4-a8e6-9f3ec37391f6}; !- Layer 3

OS:StandardsInformation:Construction,
  {9955a831-484b-45a3-846b-a69f2c4d01f4}, !- Handle
  {072e9019-b6b5-4587-b82b-42a5b30c209f}, !- Construction Name
  InteriorFloor,                          !- Intended Surface Type
  ;                                       !- Standards Construction Type

OS:Construction,
  {ac457e3c-008e-4848-90d4-d29d0ec7e466}, !- Handle
  Interior Wall,                          !- Name
  ,                                       !- Surface Rendering Name
  {585c40c0-6e20-4f98-8a45-a0fd10173941}, !- Layer 1
  {f4839b40-06ca-4632-882b-612e580988be}, !- Layer 2
  {585c40c0-6e20-4f98-8a45-a0fd10173941}; !- Layer 3

OS:StandardsInformation:Construction,
  {53aa3053-349a-4b22-bbc9-bc384a36ecd7}, !- Handle
  {ac457e3c-008e-4848-90d4-d29d0ec7e466}, !- Construction Name
  InteriorWall,                           !- Intended Surface Type
  ;                                       !- Standards Construction Type

OS:Construction,
  {9817067b-1803-44c4-9a2d-ec4345bb9f54}, !- Handle
  Interior Ceiling,                       !- Name
  ,                                       !- Surface Rendering Name
  {9cb3daa7-626b-4cf4-a8e6-9f3ec37391f6}, !- Layer 1
  {e339a08d-5937-4b53-af36-e570842e14be}, !- Layer 2
  {7430942b-a2e2-4667-bff3-f10ecbdd92ba}; !- Layer 3

OS:StandardsInformation:Construction,
  {1cc050b3-ecf5-4eb7-b0ed-ebe0050fe981}, !- Handle
  {9817067b-1803-44c4-9a2d-ec4345bb9f54}, !- Construction Name
  InteriorCeiling,                        !- Intended Surface Type
  ;                                       !- Standards Construction Type

OS:Construction,
  {48f1a503-b1eb-4492-87e6-19b7b3708d0a}, !- Handle
  ASHRAE 90.1-2004 ExtWindow ClimateZone 4-6, !- Name
  ,                                       !- Surface Rendering Name
  {f4d4e616-b56d-4486-b30f-ae8deee63c16}; !- Layer 1

OS:StandardsInformation:Construction,
  {c13162bf-447a-4aae-af1c-0b3efe015cf2}, !- Handle
  {48f1a503-b1eb-4492-87e6-19b7b3708d0a}, !- Construction Name
  ExteriorWindow,                         !- Intended Surface Type
  ;                                       !- Standards Construction Type

OS:Construction,
  {664d7afc-0b6d-431e-9101-f801298a8290}, !- Handle
  Exterior Door,                          !- Name
  ,                                       !- Surface Rendering Name
  {d5af315c-7eb9-4de7-99e6-fbeacbc267fb}, !- Layer 1
  {15fbac29-90e2-4480-b912-1bdf4a7d0d0f}; !- Layer 2

OS:StandardsInformation:Construction,
  {07acbf30-c7d0-48c8-97df-35106e8ae278}, !- Handle
  {664d7afc-0b6d-431e-9101-f801298a8290}, !- Construction Name
  ExteriorDoor,                           !- Intended Surface Type
  ;                                       !- Standards Construction Type

OS:Construction,
  {09c438ec-dc9b-4813-8ee7-1aca57a289d8}, !- Handle
  Exterior Door - Non-Swinging,           !- Name
  ,                                       !- Surface Rendering Name
  {d5af315c-7eb9-4de7-99e6-fbeacbc267fb}, !- Layer 1
  {462fafbf-55ba-49b0-a2cc-63ae37b9035c}; !- Layer 2

OS:StandardsInformation:Construction,
  {b1a6a31b-4037-4516-9d5f-f39607644e08}, !- Handle
  {09c438ec-dc9b-4813-8ee7-1aca57a289d8}, !- Construction Name
  ExteriorDoor,                           !- Intended Surface Type
  NonSwinging;                            !- Standards Construction Type

OS:Construction,
  {4f8e5e8a-850a-455a-b67f-8b60670d7698}, !- Handle
  ASHRAE 90.1-2004 Skylight ClimateZone 4-5, !- Name
  ,                                       !- Surface Rendering Name
  {2cfb2f3b-af0c-4a77-8dd8-7fb83ea3be59}; !- Layer 1

OS:StandardsInformation:Construction,
  {d7b67399-7b22-4dc5-b8a4-42b57b159350}, !- Handle
  {4f8e5e8a-850a-455a-b67f-8b60670d7698}, !- Construction Name
  ExteriorWindow,                         !- Intended Surface Type
  ;                                       !- Standards Construction Type

OS:Construction,
  {e7fdec9f-bab8-4949-9929-e9193fc09ced}, !- Handle
  Interior Window,                        !- Name
  ,                                       !- Surface Rendering Name
  {e5725c68-0f64-486e-8fe1-fbe4f3332c58}; !- Layer 1

OS:StandardsInformation:Construction,
  {f7d4eaaa-9156-41ea-84ca-4f6487e0dbab}, !- Handle
  {e7fdec9f-bab8-4949-9929-e9193fc09ced}, !- Construction Name
  InteriorWindow,                         !- Intended Surface Type
  ;                                       !- Standards Construction Type

OS:Construction,
  {13c68d60-a2f9-4dc7-93af-04d73713e223}, !- Handle
  Interior Door,                          !- Name
  ,                                       !- Surface Rendering Name
  {09d74bdb-c20a-44e1-84f0-170ab5983977}; !- Layer 1

OS:StandardsInformation:Construction,
  {0da3c950-624b-4b8c-b740-032fea6b9c2d}, !- Handle
  {13c68d60-a2f9-4dc7-93af-04d73713e223}, !- Construction Name
  InteriorDoor,                           !- Intended Surface Type
  ;                                       !- Standards Construction Type

OS:Material,
  {09d74bdb-c20a-44e1-84f0-170ab5983977}, !- Handle
  G05 25mm wood,                          !- Name
  MediumSmooth,                           !- Roughness
  0.0254,                                 !- Thickness {m}
  0.15,                                   !- Conductivity {W/m-K}
  608,                                    !- Density {kg/m3}
  1630,                                   !- Specific Heat {J/kg-K}
  0.9,                                    !- Thermal Absorptance
  0.5,                                    !- Solar Absorptance
  0.5;                                    !- Visible Absorptance

OS:Material,
  {a371c395-b937-4183-9861-3500288d3065}, !- Handle
  MAT-CC05 4 HW CONCRETE,                 !- Name
  Rough,                                  !- Roughness
  0.1016,                                 !- Thickness {m}
  1.311,                                  !- Conductivity {W/m-K}
  2240,                                   !- Density {kg/m3}
  836.800000000001,                       !- Specific Heat {J/kg-K}
  0.9,                                    !- Thermal Absorptance
  0.85,                                   !- Solar Absorptance
  0.85;                                   !- Visible Absorptance

OS:Material:NoMass,
  {d73146ef-f9e4-4096-a4a7-8a5e7b089a57}, !- Handle
  CP02 CARPET PAD,                        !- Name
  Smooth,                                 !- Roughness
  0.1,                                    !- Thermal Resistance {m2-K/W}
  0.9,                                    !- Thermal Absorptance
  0.8,                                    !- Solar Absorptance
  0.8;                                    !- Visible Absorptance

OS:Material,
  {023eb6f6-6a78-4eae-b648-79ec2434e8e6}, !- Handle
  1IN Stucco,                             !- Name
  Smooth,                                 !- Roughness
  0.0253,                                 !- Thickness {m}
  0.691799999999999,                      !- Conductivity {W/m-K}
  1858,                                   !- Density {kg/m3}
  836.999999999999,                       !- Specific Heat {J/kg-K}
  0.9,                                    !- Thermal Absorptance
  0.92,                                   !- Solar Absorptance
  0.92;                                   !- Visible Absorptance

OS:Material,
  {b995f9e3-edd9-4324-9913-f4878735fc99}, !- Handle
  8IN CONCRETE HW RefBldg,                !- Name
  Rough,                                  !- Roughness
  0.2032,                                 !- Thickness {m}
  1.311,                                  !- Conductivity {W/m-K}
  2240,                                   !- Density {kg/m3}
  836.800000000001,                       !- Specific Heat {J/kg-K}
  0.9,                                    !- Thermal Absorptance
  0.7,                                    !- Solar Absorptance
  0.7;                                    !- Visible Absorptance

OS:Material,
  {15b14615-7d32-44f4-a7c1-56fd0383a242}, !- Handle
  Mass NonRes Wall Insulation-1.43,       !- Name
  MediumRough,                            !- Roughness
  0.0495494599433394,                     !- Thickness {m}
  0.049,                                  !- Conductivity {W/m-K}
  265,                                    !- Density {kg/m3}
  836.800000000001,                       !- Specific Heat {J/kg-K}
  0.9,                                    !- Thermal Absorptance
  0.7,                                    !- Solar Absorptance
  0.7;                                    !- Visible Absorptance

OS:Material,
  {31a99222-c76a-4f29-bcc6-936102f76091}, !- Handle
  1/2IN Gypsum,                           !- Name
  Smooth,                                 !- Roughness
  0.0127,                                 !- Thickness {m}
  0.16,                                   !- Conductivity {W/m-K}
  784.9,                                  !- Density {kg/m3}
  830.000000000001,                       !- Specific Heat {J/kg-K}
  0.9,                                    !- Thermal Absorptance
  0.4,                                    !- Solar Absorptance
  0.4;                                    !- Visible Absorptance

OS:Material,
  {ab3ee14d-e0ad-4ff0-be41-abbd99b61f0d}, !- Handle
  Roof Membrane,                          !- Name
  VeryRough,                              !- Roughness
  0.0095,                                 !- Thickness {m}
  0.16,                                   !- Conductivity {W/m-K}
  1121.29,                                !- Density {kg/m3}
  1460,                                   !- Specific Heat {J/kg-K}
  0.9,                                    !- Thermal Absorptance
  0.7,                                    !- Solar Absorptance
  0.7;                                    !- Visible Absorptance

OS:Material,
  {cb4b6ab8-dfea-46a7-a899-d50e30f9ce22}, !- Handle
  IEAD NonRes Roof Insulation-2.85,       !- Name
  MediumRough,                            !- Roughness
  0.127338688569477,                      !- Thickness {m}
  0.049,                                  !- Conductivity {W/m-K}
  265,                                    !- Density {kg/m3}
  836.800000000001,                       !- Specific Heat {J/kg-K}
  0.9,                                    !- Thermal Absorptance
  0.7,                                    !- Solar Absorptance
  0.7;                                    !- Visible Absorptance

OS:Material,
  {e62bfd1c-d1de-45ba-97b8-b37bd69d8f63}, !- Handle
  Metal Decking,                          !- Name
  MediumSmooth,                           !- Roughness
  0.0015,                                 !- Thickness {m}
  45.006,                                 !- Conductivity {W/m-K}
  7680,                                   !- Density {kg/m3}
  418.4,                                  !- Specific Heat {J/kg-K}
  0.9,                                    !- Thermal Absorptance
  0.6,                                    !- Solar Absorptance
  0.6;                                    !- Visible Absorptance

OS:Material,
  {7430942b-a2e2-4667-bff3-f10ecbdd92ba}, !- Handle
  F16 Acoustic tile,                      !- Name
  MediumSmooth,                           !- Roughness
  0.0191,                                 !- Thickness {m}
  0.06,                                   !- Conductivity {W/m-K}
  368,                                    !- Density {kg/m3}
  590.000000000002,                       !- Specific Heat {J/kg-K}
  0.9,                                    !- Thermal Absorptance
  0.3,                                    !- Solar Absorptance
  0.3;                                    !- Visible Absorptance

OS:Material:AirGap,
  {e339a08d-5937-4b53-af36-e570842e14be}, !- Handle
  F05 Ceiling air space resistance,       !- Name
  0.18;                                   !- Thermal Resistance {m2-K/W}

OS:Material,
  {9cb3daa7-626b-4cf4-a8e6-9f3ec37391f6}, !- Handle
  M11 100mm lightweight concrete,         !- Name
  MediumRough,                            !- Roughness
  0.1016,                                 !- Thickness {m}
  0.53,                                   !- Conductivity {W/m-K}
  1280,                                   !- Density {kg/m3}
  840.000000000002,                       !- Specific Heat {J/kg-K}
  0.9,                                    !- Thermal Absorptance
  0.5,                                    !- Solar Absorptance
  0.5;                                    !- Visible Absorptance

OS:Material,
  {585c40c0-6e20-4f98-8a45-a0fd10173941}, !- Handle
  G01a 19mm gypsum board,                 !- Name
  MediumSmooth,                           !- Roughness
  0.019,                                  !- Thickness {m}
  0.16,                                   !- Conductivity {W/m-K}
  800,                                    !- Density {kg/m3}
  1090,                                   !- Specific Heat {J/kg-K}
  0.9,                                    !- Thermal Absorptance
  0.4,                                    !- Solar Absorptance
  0.4;                                    !- Visible Absorptance

OS:Material:AirGap,
  {f4839b40-06ca-4632-882b-612e580988be}, !- Handle
  F04 Wall air space resistance,          !- Name
  0.15;                                   !- Thermal Resistance {m2-K/W}

OS:WindowMaterial:SimpleGlazingSystem,
  {f4d4e616-b56d-4486-b30f-ae8deee63c16}, !- Handle
  Fixed Window 3.24/0.39/0.31,            !- Name
  3.23646,                                !- U-Factor {W/m2-K}
  0.39,                                   !- Solar Heat Gain Coefficient
  0.31;                                   !- Visible Transmittance

OS:Material,
  {d5af315c-7eb9-4de7-99e6-fbeacbc267fb}, !- Handle
  F08 Metal surface,                      !- Name
  Smooth,                                 !- Roughness
  0.0008,                                 !- Thickness {m}
  45.2800000000001,                       !- Conductivity {W/m-K}
  7823.99999999999,                       !- Density {kg/m3}
  500,                                    !- Specific Heat {J/kg-K}
  0.9,                                    !- Thermal Absorptance
  0.7,                                    !- Solar Absorptance
  0.7;                                    !- Visible Absorptance

OS:Material,
  {15fbac29-90e2-4480-b912-1bdf4a7d0d0f}, !- Handle
  I01 25mm insulation board,              !- Name
  MediumRough,                            !- Roughness
  0.0254,                                 !- Thickness {m}
  0.03,                                   !- Conductivity {W/m-K}
  43,                                     !- Density {kg/m3}
  1210,                                   !- Specific Heat {J/kg-K}
  0.9,                                    !- Thermal Absorptance
  0.6,                                    !- Solar Absorptance
  0.6;                                    !- Visible Absorptance

OS:Material,
  {462fafbf-55ba-49b0-a2cc-63ae37b9035c}, !- Handle
  I02 50mm insulation board,              !- Name
  MediumRough,                            !- Roughness
  0.0508,                                 !- Thickness {m}
  0.03,                                   !- Conductivity {W/m-K}
  43,                                     !- Density {kg/m3}
  1210,                                   !- Specific Heat {J/kg-K}
  0.9,                                    !- Thermal Absorptance
  0.6,                                    !- Solar Absorptance
  0.6;                                    !- Visible Absorptance

OS:WindowMaterial:SimpleGlazingSystem,
  {2cfb2f3b-af0c-4a77-8dd8-7fb83ea3be59}, !- Handle
  Skylight no curb 2.1-5 per 90.12004 CZ 4-5, !- Name
  3.91800170536831,                       !- U-Factor {W/m2-K}
  0.39,                                   !- Solar Heat Gain Coefficient
  0.2;                                    !- Visible Transmittance

OS:WindowMaterial:Glazing,
  {e5725c68-0f64-486e-8fe1-fbe4f3332c58}, !- Handle
  Clear 3mm,                              !- Name
  SpectralAverage,                        !- Optical Data Type
  ,                                       !- Window Glass Spectral Data Set Name
  0.00299999999999999,                    !- Thickness {m}
  0.837,                                  !- Solar Transmittance at Normal Incidence
  0.075,                                  !- Front Side Solar Reflectance at Normal Incidence
  0,                                      !- Back Side Solar Reflectance at Normal Incidence
  0.898,                                  !- Visible Transmittance at Normal Incidence
  0.081,                                  !- Front Side Visible Reflectance at Normal Incidence
  0,                                      !- Back Side Visible Reflectance at Normal Incidence
  0,                                      !- Infrared Transmittance at Normal Incidence
  0.84,                                   !- Front Side Infrared Hemispherical Emissivity
  0.84,                                   !- Back Side Infrared Hemispherical Emissivity
  0.9,                                    !- Conductivity {W/m-K}
  1,                                      !- Dirt Correction Factor for Solar and Visible Transmittance
  No;                                     !- Solar Diffusing

OS:People,
  {27e71e55-a28b-44d0-a4f9-79bc10129985}, !- Handle
  BreakRoom|PeopleInst,                   !- Name
  {c4812cfe-00eb-4814-b5e6-14b6b5fcb6ce}, !- People Definition Name
  {b675efe0-df7e-425e-ae48-da25d2f75c30}, !- Space or SpaceType Name
  {efbf27a7-f2df-4768-b0ae-aaf38dee6023}, !- Number of People Schedule Name
  {6c240f9d-fac4-4a83-b7f4-bac7c5a01f88}, !- Activity Level Schedule Name
  ,                                       !- Surface Name/Angle Factor List Name
  ,                                       !- Work Efficiency Schedule Name
  ,                                       !- Clothing Insulation Schedule Name
  ,                                       !- Air Velocity Schedule Name
  0.037037037037037;                      !- Multiplier

OS:People:Definition,
  {c4812cfe-00eb-4814-b5e6-14b6b5fcb6ce}, !- Handle
  BreakRoom|PeopleDef,                    !- Name
  People/Area,                            !- Number of People Calculation Method
  ,                                       !- Number of People {people}
  0.538195520835486,                      !- People per Space Floor Area {person/m2}
  ,                                       !- Space Floor Area per Person {m2/person}
  0.3;                                    !- Fraction Radiant

OS:Schedule:Ruleset,
  {efbf27a7-f2df-4768-b0ae-aaf38dee6023}, !- Handle
  0800|1700|Office|default|elec_equip - extend 0.0 shift 0.0, !- Name
  {635ddd60-2b63-4d9f-a18d-cf3a6e413875}, !- Schedule Type Limits Name
  {d7870a1c-c3f5-4d29-8dae-8d1d2ea26bd6}, !- Default Day Schedule Name
  {45adff9b-a73b-4c9d-ad12-3dbf6d78f763}, !- Summer Design Day Schedule Name
  {52edf492-41e9-4b26-85bd-36df134ffe15}; !- Winter Design Day Schedule Name

OS:Schedule:Day,
  {d7870a1c-c3f5-4d29-8dae-8d1d2ea26bd6}, !- Handle
  0800|1700|Office|default|elec_equip |default, !- Name
  {635ddd60-2b63-4d9f-a18d-cf3a6e413875}, !- Schedule Type Limits Name
  ,                                       !- Interpolate to Timestep
  8,                                      !- Hour 1
  0,                                      !- Minute 1
  0.4,                                    !- Value Until Time 1
  12,                                     !- Hour 2
  0,                                      !- Minute 2
  0.9,                                    !- Value Until Time 2
  13,                                     !- Hour 3
  0,                                      !- Minute 3
  0.8,                                    !- Value Until Time 3