
OS:Version,
  {2123f168-4af8-45b0-ac5c-e7fedd3d2cf9}, !- Handle
  1.5.5;                                  !- Version Identifier

OS:ClimateZones,
  {135edfab-17e7-40db-a436-27d385a8cd6d}, !- Handle
  ,                                       !- Active Institution
  ,                                       !- Active Year
  ASHRAE,                                 !- Climate Zone Institution Name 1
  ANSI/ASHRAE Standard 169,               !- Climate Zone Document Name 1
  2006,                                   !- Climate Zone Document Year 1
  ,                                       !- Climate Zone Value 1
  CEC,                                    !- Climate Zone Institution Name 2
  California Climate Zone Descriptions,   !- Climate Zone Document Name 2
  1995,                                   !- Climate Zone Document Year 2
  ;                                       !- Climate Zone Value 2

OS:YearDescription,
  {513d8dda-86cb-442a-b01c-1f7f0e0ac70e}; !- Handle

OS:RadianceParameters,
  {270a96f1-3c86-4b75-a667-cdf22790e2c8}, !- Handle
  1,                                      !- Accumulated Rays per Record
  0,                                      !- Direct Threshold
  1,                                      !- Direct Certainty
  1,                                      !- Direct Jitter
  1,                                      !- Direct Pretest
  6,                                      !- Ambient Bounces VMX
  2,                                      !- Ambient Bounces DMX
  4050,                                   !- Ambient Divisions VMX
  512,                                    !- Ambient Divisions DMX
  256,                                    !- Ambient Supersamples
  0.001,                                  !- Limit Weight VMX
  0.001,                                  !- Limit Weight DMX
  500,                                    !- Klems Sampling Density
  146;                                    !- Sky Discretization Resolution

OS:SimulationControl,
  {2c487a4c-bac9-4ac5-b669-1e49d9da7c2b}, !- Handle
  ,                                       !- Do Zone Sizing Calculation
  ,                                       !- Do System Sizing Calculation
  ,                                       !- Do Plant Sizing Calculation
  No,                                     !- Run Simulation for Sizing Periods
  ,                                       !- Run Simulation for Weather File Run Periods
  0.04,                                   !- Loads Convergence Tolerance Value
  ,                                       !- Temperature Convergence Tolerance Value {deltaC}
  ,                                       !- Solar Distribution
  ,                                       !- Maximum Number of Warmup Days
  2;                                      !- Minimum Number of Warmup Days

OS:Sizing:Parameters,
  {dde5af6f-7923-4600-a28a-7556673a0266}, !- Handle
  1.25,                                   !- Heating Sizing Factor
  1.15;                                   !- Cooling Sizing Factor

OS:ProgramControl,
  {05027a99-f2b3-4aeb-afc6-1425fbb4371d}; !- Handle

OS:Timestep,
  {4ebc9f1e-4707-402e-9844-67eb1ffbd522}, !- Handle
  2;                                      !- Number of Timesteps per Hour

OS:OutputControl:ReportingTolerances,
  {65797aa2-06a9-45fe-b69d-bc6e060399d3}; !- Handle

OS:ConvergenceLimits,
  {9fc11aba-8822-4f3d-970c-46391ba4040d}; !- Handle

OS:ShadowCalculation,
  {ca758bea-4416-4626-9bba-3d8795c79bd6}, !- Handle
  7,                                      !- Calculation Frequency
  15000;                                  !- Maximum Figures in Shadow Overlap Calculations

OS:SurfaceConvectionAlgorithm:Inside,
  {aaabfc36-718a-4ab0-b622-f186ebb45230}, !- Handle
  TARP;                                   !- Algorithm

OS:SurfaceConvectionAlgorithm:Outside,
  {9a0a9f6f-4bbd-4b12-a121-9492a1fcd7d6}, !- Handle
  DOE-2;                                  !- Algorithm

OS:HeatBalanceAlgorithm,
  {9d93e563-e1e0-46d7-9e39-d1c8aceb7212}, !- Handle
  ConductionTransferFunction,             !- Algorithm
  200;                                    !- Surface Temperature Upper Limit {F}

OS:ZoneAirHeatBalanceAlgorithm,
  {8520d93e-310f-4696-9bcd-36228bfdd743}, !- Handle
  AnalyticalSolution;                     !- Algorithm

OS:ZoneAirContaminantBalance,
  {eb5fc3ae-fb22-4160-8fcb-3e3b22b000d3}; !- Handle

OS:ZoneCapacitanceMultiplier:ResearchSpecial,
  {4020ce4f-5a7a-4849-8028-8305d7b751b1}, !- Handle
  ,                                       !- Temperature Capacity Multiplier
  ,                                       !- Humidity Capacity Multiplier
  ;                                       !- Carbon Dioxide Capacity Multiplier

OS:RunPeriod,
  {28df894d-6af9-4fb8-8f56-df1753344aa3}, !- Handle
  Run Period 1,                           !- Name
  1,                                      !- Begin Month
  1,                                      !- Begin Day of Month
  12,                                     !- End Month
  31,                                     !- End Day of Month
  ,                                       !- Use Weather File Holidays and Special Days
  ,                                       !- Use Weather File Daylight Saving Period
  ,                                       !- Apply Weekend Holiday Rule
  ,                                       !- Use Weather File Rain Indicators
  ,                                       !- Use Weather File Snow Indicators
  ;                                       !- Number of Times Runperiod to be Repeated

OS:Building,
  {bf305633-c5a1-4881-9edf-ca5e1a8e1274}, !- Handle
  Building 1,                             !- Name
  ,                                       !- Building Sector Type
  ,                                       !- North Axis {deg}
  ,                                       !- Nominal Floor to Floor Height {m}
  ,                                       !- Space Type Name
  ,                                       !- Default Construction Set Name
  {bb8a0acb-cb51-4e05-827b-4d44d8e7e238}, !- Default Schedule Set Name
  ,                                       !- Standards Number of Stories
  ,                                       !- Standards Number of Above Ground Stories
  Office;                                 !- Standards Building Type

OS:LifeCycleCost:Parameters,
  {231cf8a0-f0e7-4251-a99f-11f0d464e661}, !- Handle
  FEMP,                                   !- Analysis Type
  ,                                       !- Discounting Convention
  ,                                       !- Inflation Approach
  ,                                       !- Real Discount Rate
  ,                                       !- Nominal Discount Rate
  ,                                       !- Inflation
  ,                                       !- Base Date Month
  ,                                       !- Base Date Year
  ,                                       !- Service Date Month
  ,                                       !- Service Date Year
  ,                                       !- Length of Study Period in Years
  ,                                       !- Tax Rate
  ,                                       !- Depreciation Method
  Yes;                                    !- Use NIST Fuel Escalation Rates

OS:Facility,
  {3ba8e45b-b833-44eb-a723-ea6c3946dc96}; !- Handle

OS:SpaceType,
  {568adba4-f529-4ddd-8ff1-37dbc4f78a97}, !- Handle
  Office|BlendA|DOE Ref Pre-1980|ASHRAE 169-2006-5A, !- Name
  {432f5a81-fd3d-44b0-b950-b9974ed5b9ad}, !- Default Construction Set Name
  ,                                       !- Default Schedule Set Name
  {7ccae56b-39f3-425e-af47-b26a1a65e963}, !- Group Rendering Name
  {84043da8-77ef-450a-90b3-cfa437bd4b74}, !- Design Specification Outdoor Air Object Name
  Office,                                 !- Standards Building Type
  BlendA;                                 !- Standards Space Type

OS:Rendering:Color,
  {7ccae56b-39f3-425e-af47-b26a1a65e963}, !- Handle
  Rendering Color 1,                      !- Name
  120,                                    !- Rendering Red Value
  230,                                    !- Rendering Green Value
  199;                                    !- Rendering Blue Value

OS:SpaceType,
  {717fe179-b909-4b65-98b8-182645a5795b}, !- Handle
  Office|BlendB|DOE Ref Pre-1980|ASHRAE 169-2006-5A, !- Name
  {432f5a81-fd3d-44b0-b950-b9974ed5b9ad}, !- Default Construction Set Name
  ,                                       !- Default Schedule Set Name
  {3a1dd267-672d-40ed-b7c7-a3e1d6310c41}, !- Group Rendering Name
  {56b6913f-66f4-4715-b634-562e9f352b15}, !- Design Specification Outdoor Air Object Name
  Office,                                 !- Standards Building Type
  BlendB;                                 !- Standards Space Type

OS:Rendering:Color,
  {3a1dd267-672d-40ed-b7c7-a3e1d6310c41}, !- Handle
  Rendering Color 2,                      !- Name
  120,                                    !- Rendering Red Value
  149,                                    !- Rendering Green Value
  230;                                    !- Rendering Blue Value

OS:SpaceType,
  {673e2d6e-3b6d-4ba4-96dd-1d284e3f74d0}, !- Handle
  Office|IT_Room|DOE Ref Pre-1980|ASHRAE 169-2006-5A, !- Name
  {432f5a81-fd3d-44b0-b950-b9974ed5b9ad}, !- Default Construction Set Name
  {d6b9a3bc-efc5-4e50-9566-4acfdba2f96a}, !- Default Schedule Set Name
  {3b1975a9-27d1-43b2-9be3-6347ae6f43b7}, !- Group Rendering Name
  {5ee344ff-8a9c-47f0-af14-a689515ef2f6}, !- Design Specification Outdoor Air Object Name
  Office,                                 !- Standards Building Type
  IT_Room;                                !- Standards Space Type

OS:Rendering:Color,
  {3b1975a9-27d1-43b2-9be3-6347ae6f43b7}, !- Handle
  Rendering Color 3,                      !- Name
  41,                                     !- Rendering Red Value
  31,                                     !- Rendering Green Value
  169;                                    !- Rendering Blue Value

OS:SpaceType,
  {1a9dc449-aa13-46fa-8c04-040cb7697fee}, !- Handle
  Office|Elec/MechRoom|DOE Ref Pre-1980|ASHRAE 169-2006-5A, !- Name
  {432f5a81-fd3d-44b0-b950-b9974ed5b9ad}, !- Default Construction Set Name
  {f2560fa7-a226-4f76-ab94-8ee7f9b540e7}, !- Default Schedule Set Name
  {dd991a1d-067f-4af5-81af-29c632a89162}, !- Group Rendering Name
  {0ecbfeeb-0396-46a8-865c-5e43da89a06d}, !- Design Specification Outdoor Air Object Name
  Office,                                 !- Standards Building Type
  Elec/MechRoom;                          !- Standards Space Type

OS:Rendering:Color,
  {dd991a1d-067f-4af5-81af-29c632a89162}, !- Handle
  Rendering Color 4,                      !- Name
  41,                                     !- Rendering Red Value
  31,                                     !- Rendering Green Value
  169;                                    !- Rendering Blue Value

OS:SpaceType,
  {4b8a0946-a21b-4050-83dc-6461c3c78e3f}, !- Handle
  Office|PrintRoom|DOE Ref Pre-1980|ASHRAE 169-2006-5A, !- Name
  {432f5a81-fd3d-44b0-b950-b9974ed5b9ad}, !- Default Construction Set Name
  {46d7aa04-5e9a-495a-9959-1f3471fb763e}, !- Default Schedule Set Name
  {dcbfc582-683c-4350-a677-84e7a41f0c7e}, !- Group Rendering Name
  {b2ed782d-4df8-401a-a5cb-1b542f841831}, !- Design Specification Outdoor Air Object Name
  Office,                                 !- Standards Building Type
  PrintRoom;                              !- Standards Space Type

OS:Rendering:Color,
  {dcbfc582-683c-4350-a677-84e7a41f0c7e}, !- Handle
  Rendering Color 5,                      !- Name
  41,                                     !- Rendering Red Value
  31,                                     !- Rendering Green Value
  169;                                    !- Rendering Blue Value

OS:SpaceType,
  {f1003acf-bffc-4f91-b665-6e587708872c}, !- Handle
  Office|Restroom|DOE Ref Pre-1980|ASHRAE 169-2006-5A, !- Name
  {432f5a81-fd3d-44b0-b950-b9974ed5b9ad}, !- Default Construction Set Name
  {563e688b-1cff-4a9d-9f8e-3cd2fcc5bc94}, !- Default Schedule Set Name
  {babcebc5-6ca3-40aa-b54a-12bd9d9c6d0c}, !- Group Rendering Name
  {e2451fbb-1cd3-4991-a37e-a079c5378735}, !- Design Specification Outdoor Air Object Name
  Office,                                 !- Standards Building Type
  Restroom;                               !- Standards Space Type

OS:Rendering:Color,
  {babcebc5-6ca3-40aa-b54a-12bd9d9c6d0c}, !- Handle
  Rendering Color 6,                      !- Name
  169,                                    !- Rendering Red Value
  169,                                    !- Rendering Green Value
  31;                                     !- Rendering Blue Value

OS:Schedule:Ruleset,
  {8ad82a76-4206-450a-9e75-aa00576b0dee}, !- Handle
  0800|1700|Office|default|hoo,           !- Name
  {39faaa39-7bf4-423e-a548-14bf88c74a1e}, !- Schedule Type Limits Name
  {e86d5f03-fe97-4a10-bfb4-45b8b3e5ceae}, !- Default Day Schedule Name
  {ee7aba78-2846-4a92-af91-9ef0f4f6a3d1}, !- Summer Design Day Schedule Name
  {7f3cac6b-dc7f-45e7-a3e0-2628a10b65be}; !- Winter Design Day Schedule Name

OS:Schedule:Day,
  {e86d5f03-fe97-4a10-bfb4-45b8b3e5ceae}, !- Handle
  0800|1700|Office|default|hoo Schedule Week Day, !- Name
  {39faaa39-7bf4-423e-a548-14bf88c74a1e}, !- Schedule Type Limits Name
  ,                                       !- Interpolate to Timestep
  8,                                      !- Hour 1
  0,                                      !- Minute 1
  0,                                      !- Value Until Time 1
  17,                                     !- Hour 2
  0,                                      !- Minute 2
  1,                                      !- Value Until Time 2
  24,                                     !- Hour 3
  0,                                      !- Minute 3
  0;                                      !- Value Until Time 3

OS:Schedule:Day,
  {7a4bbd52-0ce4-4e05-b8be-9b899e57d1b7}, !- Handle
  Schedule Day 2,                         !- Name
  ,                                       !- Schedule Type Limits Name
  ,                                       !- Interpolate to Timestep
  24,                                     !- Hour 1
  0,                                      !- Minute 1
  0;                                      !- Value Until Time 1

OS:Schedule:Day,
  {7f3cac6b-dc7f-45e7-a3e0-2628a10b65be}, !- Handle
  0800|1700|Office|default|hoo Winter Design Day, !- Name
  {39faaa39-7bf4-423e-a548-14bf88c74a1e}, !- Schedule Type Limits Name
  ,                                       !- Interpolate to Timestep
  24,                                     !- Hour 1
  0,                                      !- Minute 1
  0;                                      !- Value Until Time 1

OS:Schedule:Day,
  {f48819e5-41e7-4af3-9b8d-21bd8bf811ba}, !- Handle
  Schedule Day 3,                         !- Name
  ,                                       !- Schedule Type Limits Name
  ,                                       !- Interpolate to Timestep
  24,                                     !- Hour 1
  0,                                      !- Minute 1
  0;                                      !- Value Until Time 1

OS:Schedule:Day,
  {ee7aba78-2846-4a92-af91-9ef0f4f6a3d1}, !- Handle
  0800|1700|Office|default|hoo Summer Design Day, !- Name
  {39faaa39-7bf4-423e-a548-14bf88c74a1e}, !- Schedule Type Limits Name
  ,                                       !- Interpolate to Timestep
  24,                                     !- Hour 1
  0,                                      !- Minute 1
  1;                                      !- Value Until Time 1

OS:DefaultScheduleSet,
  {bb8a0acb-cb51-4e05-827b-4d44d8e7e238}, !- Handle
  Building Hours of Operation,            !- Name
  {8ad82a76-4206-450a-9e75-aa00576b0dee}, !- Hours of Operation Schedule Name
  ,                                       !- Number of People Schedule Name
  ,                                       !- People Activity Level Schedule Name
  ,                                       !- Lighting Schedule Name
  ,                                       !- Electric Equipment Schedule Name
  ,                                       !- Gas Equipment Schedule Name
  ,                                       !- Hot Water Equipment Schedule Name
  ,                                       !- Infiltration Schedule Name
  ,                                       !- Steam Equipment Schedule Name
  ;                                       !- Other Equipment Schedule Name

OS:ScheduleTypeLimits,
  {39faaa39-7bf4-423e-a548-14bf88c74a1e}, !- Handle
  OnOff,                                  !- Name
  0,                                      !- Lower Limit Value {BasedOnField A4}
  1,                                      !- Upper Limit Value {BasedOnField A4}
  Discrete,                               !- Numeric Type
  Availability;                           !- Unit Type

OS:Schedule:Ruleset,
  {f2e0dfe1-cadc-4b4f-9835-db77dad65322}, !- Handle
  0800|1700|Office|OpenOffice|occ,        !- Name
  {a80b6d3f-f5a5-44e4-88e6-d0d4d0655c39}, !- Schedule Type Limits Name
  {0f14f1ef-0487-47c2-a9a9-9b2727424ded}, !- Default Day Schedule Name
  {0d476e5e-25eb-4fc0-8a05-eb1479681128}, !- Summer Design Day Schedule Name
  {4f2f908c-52dd-4ae9-994e-896b20ffdee8}; !- Winter Design Day Schedule Name

OS:ScheduleTypeLimits,
  {a80b6d3f-f5a5-44e4-88e6-d0d4d0655c39}, !- Handle
  Occupancy Schedule Type Limits,         !- Name
  0,                                      !- Lower Limit Value {BasedOnField A4}
  1,                                      !- Upper Limit Value {BasedOnField A4}
  Continuous,                             !- Numeric Type
  Dimensionless;                          !- Unit Type

OS:Schedule:Day,
  {0f14f1ef-0487-47c2-a9a9-9b2727424ded}, !- Handle
  0800|1700|Office|OpenOffice|occ |default, !- Name
  {a80b6d3f-f5a5-44e4-88e6-d0d4d0655c39}, !- Schedule Type Limits Name
  ,                                       !- Interpolate to Timestep
  5,                                      !- Hour 1
  0,                                      !- Minute 1
  0,                                      !- Value Until Time 1
  5,                                      !- Hour 2
  30,                                     !- Minute 2
  0.05,                                   !- Value Until Time 2
  6,                                      !- Hour 3
  0,                                      !- Minute 3
  0.1,                                    !- Value Until Time 3
  6,                                      !- Hour 4
  30,                                     !- Minute 4
  0.15,                                   !- Value Until Time 4
  7,                                      !- Hour 5
  0,                                      !- Minute 5
  0.2,                                    !- Value Until Time 5
  7,                                      !- Hour 6
  30,                                     !- Minute 6
  0.25,                                   !- Value Until Time 6
  8,                                      !- Hour 7
  0,                                      !- Minute 7
  0.3,                                    !- Value Until Time 7
  12,                                     !- Hour 8
  0,                                      !- Minute 8
  0.85,                                   !- Value Until Time 8
  13,                                     !- Hour 9
  0,                                      !- Minute 9
  0.51,                                   !- Value Until Time 9
  17,                                     !- Hour 10
  0,                                      !- Minute 10
  0.85,                                   !- Value Until Time 10
  17,                                     !- Hour 11
  30,                                     !- Minute 11
  0.76,                                   !- Value Until Time 11
  18,                                     !- Hour 12
  0,                                      !- Minute 12
  0.68,                                   !- Value Until Time 12
  18,                                     !- Hour 13
  30,                                     !- Minute 13
  0.6,                                    !- Value Until Time 13
  19,                                     !- Hour 14
  0,                                      !- Minute 14
  0.51,                                   !- Value Until Time 14
  19,                                     !- Hour 15
  30,                                     !- Minute 15
  0.43,                                   !- Value Until Time 15
  20,                                     !- Hour 16
  0,                                      !- Minute 16
  0.34,                                   !- Value Until Time 16
  20,                                     !- Hour 17
  30,                                     !- Minute 17
  0.26,                                   !- Value Until Time 17
  21,                                     !- Hour 18
  0,                                      !- Minute 18
  0.17,                                   !- Value Until Time 18
  21,                                     !- Hour 19
  30,                                     !- Minute 19
  0.09,                                   !- Value Until Time 19
  24,                                     !- Hour 20
  0,                                      !- Minute 20
  0;                                      !- Value Until Time 20

OS:Schedule:Day,
  {0d476e5e-25eb-4fc0-8a05-eb1479681128}, !- Handle
  0800|1700|Office|OpenOffice|occ Summer Design Day, !- Name
  {a80b6d3f-f5a5-44e4-88e6-d0d4d0655c39}, !- Schedule Type Limits Name
  ,                                       !- Interpolate to Timestep
  5,                                      !- Hour 1
  0,                                      !- Minute 1
  0,                                      !- Value Until Time 1
  5,                                      !- Hour 2
  30,                                     !- Minute 2
  0.05,                                   !- Value Until Time 2
  6,                                      !- Hour 3
  0,                                      !- Minute 3
  0.1,                                    !- Value Until Time 3
  6,                                      !- Hour 4
  30,                                     !- Minute 4
  0.15,                                   !- Value Until Time 4
  7,                                      !- Hour 5
  0,                                      !- Minute 5
  0.2,                                    !- Value Until Time 5
  7,                                      !- Hour 6
  30,                                     !- Minute 6
  0.25,                                   !- Value Until Time 6
  20,                                     !- Hour 7
  0,                                      !- Minute 7
  1,                                      !- Value Until Time 7
  20,                                     !- Hour 8
  30,                                     !- Minute 8
  0.26,                                   !- Value Until Time 8
  21,                                     !- Hour 9
  0,                                      !- Minute 9
  0.17,                                   !- Value Until Time 9
  21,                                     !- Hour 10
  30,                                     !- Minute 10
  0.09,                                   !- Value Until Time 10
  24,                                     !- Hour 11
  0,                                      !- Minute 11
  0;                                      !- Value Until Time 11

OS:Schedule:Day,
  {4f2f908c-52dd-4ae9-994e-896b20ffdee8}, !- Handle
  0800|1700|Office|OpenOffice|occ Winter Design Day, !- Name
  {a80b6d3f-f5a5-44e4-88e6-d0d4d0655c39}, !- Schedule Type Limits Name
  ,                                       !- Interpolate to Timestep
  24,                                     !- Hour 1
  0,                                      !- Minute 1
  0;                                      !- Value Until Time 1

OS:Schedule:Rule,
  {9adf26ad-e727-4ab3-880b-da3525d94ad9}, !- Handle
  0800|1700|Office|OpenOffice|occ |1/1-12/31|Sun Rule, !- Name
  {f2e0dfe1-cadc-4b4f-9835-db77dad65322}, !- Schedule Ruleset Name
  0,                                      !- Rule Order
  {b97a39f7-a698-46c9-9858-bab375cde44b}, !- Day Schedule Name
  Yes,                                    !- Apply Sunday
  ,                                       !- Apply Monday
  ,                                       !- Apply Tuesday
  ,                                       !- Apply Wednesday
  ,                                       !- Apply Thursday
  ,                                       !- Apply Friday
  ,                                       !- Apply Saturday
  ,                                       !- Apply Holiday
  DateRange,                              !- Date Specification Type
  1,                                      !- Start Month
  1,                                      !- Start Day
  12,                                     !- End Month
  31;                                     !- End Day

OS:Schedule:Day,
  {b97a39f7-a698-46c9-9858-bab375cde44b}, !- Handle
  0800|1700|Office|OpenOffice|occ |1/1-12/31|Sun, !- Name
  {a80b6d3f-f5a5-44e4-88e6-d0d4d0655c39}, !- Schedule Type Limits Name
  ,                                       !- Interpolate to Timestep
  24,                                     !- Hour 1
  0,                                      !- Minute 1
  0;                                      !- Value Until Time 1

OS:Schedule:Rule,
  {3c3dd64a-7789-4c4b-8b45-134a6ca7170e}, !- Handle
  0800|1700|Office|OpenOffice|occ |1/1-12/31|Sat Rule, !- Name
  {f2e0dfe1-cadc-4b4f-9835-db77dad65322}, !- Schedule Ruleset Name
  1,                                      !- Rule Order
  {45bc2adc-4240-49de-aa1d-cf29b078bea1}, !- Day Schedule Name
  ,                                       !- Apply Sunday
  ,                                       !- Apply Monday
  ,                                       !- Apply Tuesday
  ,                                       !- Apply Wednesday
  ,                                       !- Apply Thursday
  ,                                       !- Apply Friday
  Yes,                                    !- Apply Saturday
  ,                                       !- Apply Holiday
  DateRange,                              !- Date Specification Type
  1,                                      !- Start Month
  1,                                      !- Start Day
  12,                                     !- End Month
  31;                                     !- End Day

OS:Schedule:Day,
  {45bc2adc-4240-49de-aa1d-cf29b078bea1}, !- Handle
  0800|1700|Office|OpenOffice|occ |1/1-12/31|Sat, !- Name
  {a80b6d3f-f5a5-44e4-88e6-d0d4d0655c39}, !- Schedule Type Limits Name
  ,                                       !- Interpolate to Timestep
  5,                                      !- Hour 1
  0,                                      !- Minute 1
  0,                                      !- Value Until Time 1
  5,                                      !- Hour 2
  30,                                     !- Minute 2
  0.03,                                   !- Value Until Time 2
  6,                                      !- Hour 3
  0,                                      !- Minute 3
  0.07,                                   !- Value Until Time 3
  6,                                      !- Hour 4
  30,                                     !- Minute 4
  0.1,                                    !- Value Until Time 4
  7,                                      !- Hour 5
  0,                                      !- Minute 5
  0.13,                                   !- Value Until Time 5
  7,                                      !- Hour 6
  30,                                     !- Minute 6
  0.17,                                   !- Value Until Time 6
  8,                                      !- Hour 7
  0,                                      !- Minute 7
  0.2,                                    !- Value Until Time 7
  14,                                     !- Hour 8
  0,                                      !- Minute 8
  0.4,                                    !- Value Until Time 8
  14,                                     !- Hour 9
  30,                                     !- Minute 9
  0.18,                                   !- Value Until Time 9
  15,                                     !- Hour 10
  0,                                      !- Minute 10
  0.15,                                   !- Value Until Time 10
  15,                                     !- Hour 11
  30,                                     !- Minute 11
  0.13,                                   !- Value Until Time 11
  16,                                     !- Hour 12
  0,                                      !- Minute 12
  0.1,                                    !- Value Until Time 12
  16,                                     !- Hour 13
  30,                                     !- Minute 13
  0.08,                                   !- Value Until Time 13
  17,                                     !- Hour 14
  0,                                      !- Minute 14
  0.05,                                   !- Value Until Time 14
  17,                                     !- Hour 15
  30,                                     !- Minute 15
  0.03,                                   !- Value Until Time 15
  24,                                     !- Hour 16
  0,                                      !- Minute 16
  0;                                      !- Value Until Time 16

OS:Schedule:Ruleset,
  {3df5d170-2f69-41dc-a3e8-18b02e51489b}, !- Handle
  0800|1700|Office|default|elec_equip,    !- Name
  {a455d8da-56cb-4ba0-b694-f6c2b735afbf}, !- Schedule Type Limits Name
  {3ec6b985-92fc-4c98-ada4-ececcf1cfd3e}, !- Default Day Schedule Name
  {59fcfe08-ff47-4a7c-9185-2f6c29de115a}, !- Summer Design Day Schedule Name