
OS:Version,
  {c73482fa-8ff8-4cc0-8d92-b1254f4bab6f}, !- Handle
  1.5.5;                                  !- Version Identifier

OS:ClimateZones,
  {923a5843-b541-47c7-85a4-7ff2520190ce}, !- Handle
  ,                                       !- Active Institution
  ,                                       !- Active Year
  ASHRAE,                                 !- Climate Zone Institution Name 1
  ANSI/ASHRAE Standard 169,               !- Climate Zone Document Name 1
  2006,                                   !- Climate Zone Document Year 1
  ,                                       !- Climate Zone Value 1
  CEC,                                    !- Climate Zone Institution Name 2
  California Climate Zone Descriptions,   !- Climate Zone Document Name 2
  1995,                                   !- Climate Zone Document Year 2
  ;                                       !- Climate Zone Value 2

OS:LifeCycleCost:Parameters,
  {c9a78236-8c6d-4752-bcfb-f41cf3ba8558}, !- Handle
  FEMP,                                   !- Analysis Type
  ,                                       !- Discounting Convention
  ,                                       !- Inflation Approach
  ,                                       !- Real Discount Rate
  ,                                       !- Nominal Discount Rate
  ,                                       !- Inflation
  ,                                       !- Base Date Month
  ,                                       !- Base Date Year
  ,                                       !- Service Date Month
  ,                                       !- Service Date Year
  ,                                       !- Length of Study Period in Years
  ,                                       !- Tax Rate
  ,                                       !- Depreciation Method
  Yes;                                    !- Use NIST Fuel Escalation Rates

OS:YearDescription,
  {c7b93f69-35de-4deb-84d6-fb6ff90d8fc7}; !- Handle

OS:Building,
  {1957d795-ef60-4769-b800-87c1c2e5d67b}, !- Handle
  Building 1,                             !- Name
  ,                                       !- Building Sector Type
  ,                                       !- North Axis {deg}
  ,                                       !- Nominal Floor to Floor Height {m}
  ,                                       !- Space Type Name
  ,                                       !- Default Construction Set Name
  {6d0335de-f4b8-4554-be01-b275458434de}; !- Default Schedule Set Name

OS:Facility,
  {d93ff420-77e8-4529-95be-e1680dde219c}; !- Handle

OS:SpaceType,
  {7a116c03-d92a-4cf1-8b37-b0b3aca74d52}, !- Handle
  Office|BlendA|DOE Ref 2004|ASHRAE 169-2006-5A, !- Name
  {884664e0-d78a-43da-b730-bacdff11421f}, !- Default Construction Set Name
  ,                                       !- Default Schedule Set Name
  {c8ea5c75-1b2c-4e1b-a885-5fcccac6d035}, !- Group Rendering Name
  {73100ffd-a5d9-4d2e-8188-c1529ca2ddeb}, !- Design Specification Outdoor Air Object Name
  Office,                                 !- Standards Building Type
  BlendA;                                 !- Standards Space Type

OS:DefaultConstructionSet,
  {884664e0-d78a-43da-b730-bacdff11421f}, !- Handle
  DOE Ref 2004|ASHRAE 169-2006-5A|Office, !- Name
  {480a7745-3790-40ca-9e6e-5656753ddda6}, !- Default Exterior Surface Constructions Name
  {f5e0776c-4aed-4d9d-8ca9-4750035bec4f}, !- Default Interior Surface Constructions Name
  {28fa4228-e30b-47be-ba36-0623bdf46b85}, !- Default Ground Contact Surface Constructions Name
  {1059d318-4055-4a5d-b228-b387603115f1}, !- Default Exterior SubSurface Constructions Name
  {ad6d15c6-10c7-4c82-bbd3-fbb49bf88d3e}, !- Default Interior SubSurface Constructions Name
  {a567d4d5-96aa-427b-ad02-e4cc4de3a58c}, !- Interior Partition Construction Name
  ,                                       !- Space Shading Construction Name
  ,                                       !- Building Shading Construction Name
  ;                                       !- Site Shading Construction Name

OS:Rendering:Color,
  {c8ea5c75-1b2c-4e1b-a885-5fcccac6d035}, !- Handle
  Rendering Color 1,                      !- Name
  120,                                    !- Rendering Red Value
  230,                                    !- Rendering Green Value
  199;                                    !- Rendering Blue Value

OS:DesignSpecification:OutdoorAir,
  {73100ffd-a5d9-4d2e-8188-c1529ca2ddeb}, !- Handle
  Office|BlendA|DOE Ref 2004|ASHRAE 169-2006-5A|OutdoorAir, !- Name
  Sum,                                    !- Outdoor Air Method
  0.00911075175468151,                    !- Outdoor Air Flow per Person {m3/s-person}
  0,                                      !- Outdoor Air Flow per Floor Area {m3/s-m2}
  ,                                       !- Outdoor Air Flow Rate {m3/s}
  0,                                      !- Outdoor Air Flow Air Changes per Hour {1/hr}
  ;                                       !- Outdoor Air Flow Rate Fraction Schedule Name

OS:DefaultSurfaceConstructions,
  {480a7745-3790-40ca-9e6e-5656753ddda6}, !- Handle
  DOE Ref 2004|ASHRAE 169-2006-5A|Office|ext_surf, !- Name
  {26979cf4-62c9-4dc5-a169-8e2462808212}, !- Floor Construction Name
  {55ab6e56-12b7-4e5f-88c9-b5e0d87b409f}, !- Wall Construction Name
  {1b24f6a2-a03c-4238-9c2c-63dab95d50ca}; !- Roof Ceiling Construction Name

OS:DefaultSurfaceConstructions,
  {f5e0776c-4aed-4d9d-8ca9-4750035bec4f}, !- Handle
  DOE Ref 2004|ASHRAE 169-2006-5A|Office|int_surf, !- Name
  {f7e091c1-2290-4771-a3c8-332683715907}, !- Floor Construction Name
  {d671ff89-6d21-455e-826d-c358b963fb16}, !- Wall Construction Name
  {08f05a11-d713-4046-8054-3a7acc6b22ea}; !- Roof Ceiling Construction Name

OS:DefaultSurfaceConstructions,
  {28fa4228-e30b-47be-ba36-0623bdf46b85}, !- Handle
  DOE Ref 2004|ASHRAE 169-2006-5A|Office|ground_surf, !- Name
  {26979cf4-62c9-4dc5-a169-8e2462808212}, !- Floor Construction Name
  {26979cf4-62c9-4dc5-a169-8e2462808212}, !- Wall Construction Name
  {26979cf4-62c9-4dc5-a169-8e2462808212}; !- Roof Ceiling Construction Name

OS:DefaultSubSurfaceConstructions,
  {1059d318-4055-4a5d-b228-b387603115f1}, !- Handle
  DOE Ref 2004|ASHRAE 169-2006-5A|Office|ext_sub, !- Name
  {8c0b4ed4-0cb6-446d-812d-57c2af5214fc}, !- Fixed Window Construction Name
  {8c0b4ed4-0cb6-446d-812d-57c2af5214fc}, !- Operable Window Construction Name
  {998d8581-c925-4587-834f-edd2996cc534}, !- Door Construction Name
  ,                                       !- Glass Door Construction Name
  {014711c7-e748-4d61-a6e7-e92cd9e2913f}, !- Overhead Door Construction Name
  {4cbdb308-b9a8-43ec-ae29-2260265a05d1}, !- Skylight Construction Name
  {01752da5-d276-4b55-9d5a-71ae59ec2a9c}, !- Tubular Daylight Dome Construction Name
  {01752da5-d276-4b55-9d5a-71ae59ec2a9c}; !- Tubular Daylight Diffuser Construction Name

OS:DefaultSubSurfaceConstructions,
  {ad6d15c6-10c7-4c82-bbd3-fbb49bf88d3e}, !- Handle
  DOE Ref 2004|ASHRAE 169-2006-5A|Office|int_sub, !- Name
  {01752da5-d276-4b55-9d5a-71ae59ec2a9c}, !- Fixed Window Construction Name
  {01752da5-d276-4b55-9d5a-71ae59ec2a9c}, !- Operable Window Construction Name
  {43339581-80a5-4e4e-83ed-95567d7a47eb}, !- Door Construction Name
  ,                                       !- Glass Door Construction Name
  ,                                       !- Overhead Door Construction Name
  ,                                       !- Skylight Construction Name
  ,                                       !- Tubular Daylight Dome Construction Name
  ;                                       !- Tubular Daylight Diffuser Construction Name

OS:Construction,
  {a567d4d5-96aa-427b-ad02-e4cc4de3a58c}, !- Handle
  Interior Partition,                     !- Name
  ,                                       !- Surface Rendering Name
  {2e251d14-8a6d-458b-a724-46a926c0d831}; !- Layer 1

OS:StandardsInformation:Construction,
  {a27f2eee-eb32-415c-936b-66cdb6247742}, !- Handle
  {a567d4d5-96aa-427b-ad02-e4cc4de3a58c}, !- Construction Name
  InteriorPartition,                      !- Intended Surface Type
  ;                                       !- Standards Construction Type

OS:Construction,
  {26979cf4-62c9-4dc5-a169-8e2462808212}, !- Handle
  ExtSlabCarpet 4in ClimateZone 1-8,      !- Name
  ,                                       !- Surface Rendering Name
  {ecc4c686-e753-4d95-aa85-4fdf742c39df}, !- Layer 1
  {ac5f3e17-f653-4bfa-afe9-afb7444790f6}; !- Layer 2

OS:StandardsInformation:Construction,
  {c837876b-791d-4c9d-85c7-7d4a8b49257b}, !- Handle
  {26979cf4-62c9-4dc5-a169-8e2462808212}, !- Construction Name
  ExteriorFloor,                          !- Intended Surface Type
  ;                                       !- Standards Construction Type

OS:Construction,
  {55ab6e56-12b7-4e5f-88c9-b5e0d87b409f}, !- Handle
  ASHRAE 90.1-2004 ExtWall Mass ClimateZone 5, !- Name
  ,                                       !- Surface Rendering Name
  {0f8d1bcc-64c3-43d3-997e-1a2a0cbb4156}, !- Layer 1
  {b2b7f4f0-47b2-4199-bf62-b08a2ba8b2f3}, !- Layer 2
  {9436d7a5-aa6d-4b58-8700-9b2d9857da10}, !- Layer 3
  {32febe3c-2500-4c60-9129-9c0f370bc165}; !- Layer 4

OS:StandardsInformation:Construction,
  {6d916e5a-eabe-4da3-b817-f5b6b08aae6a}, !- Handle
  {55ab6e56-12b7-4e5f-88c9-b5e0d87b409f}, !- Construction Name
  ExteriorWall,                           !- Intended Surface Type
  Mass;                                   !- Standards Construction Type

OS:Construction,
  {1b24f6a2-a03c-4238-9c2c-63dab95d50ca}, !- Handle
  ASHRAE 90.1-2004 ExtRoof IEAD ClimateZone 5-6, !- Name
  ,                                       !- Surface Rendering Name
  {8dac83c0-eb8c-4293-a122-edcbc0ff1783}, !- Layer 1
  {11f4fe95-d8fc-4c71-87a7-fd62819907ce}, !- Layer 2
  {dc9e786f-8caf-4dd1-a54a-4688c03a1e57}; !- Layer 3

OS:StandardsInformation:Construction,
  {d582c1df-0878-455a-889b-b9cd4a938c84}, !- Handle
  {1b24f6a2-a03c-4238-9c2c-63dab95d50ca}, !- Construction Name
  ExteriorRoof,                           !- Intended Surface Type
  IEAD;                                   !- Standards Construction Type

OS:Construction,
  {f7e091c1-2290-4771-a3c8-332683715907}, !- Handle
  Interior Floor,                         !- Name
  ,                                       !- Surface Rendering Name
  {88389d67-49c2-4cdf-82e3-4dccdeacb8dd}, !- Layer 1
  {ec7d89af-b8dd-4560-a7a0-027bb9215d84}, !- Layer 2
  {a951aa35-0bae-43f8-be88-1a62cd92c75a}; !- Layer 3

OS:StandardsInformation:Construction,
  {6b26351d-ab15-41f4-9eee-f4ba05d0113d}, !- Handle
  {f7e091c1-2290-4771-a3c8-332683715907}, !- Construction Name
  InteriorFloor,                          !- Intended Surface Type
  ;                                       !- Standards Construction Type

OS:Construction,
  {d671ff89-6d21-455e-826d-c358b963fb16}, !- Handle
  Interior Wall,                          !- Name
  ,                                       !- Surface Rendering Name
  {76a67aa7-457e-4574-8c29-234b984fe14d}, !- Layer 1
  {9d33308e-742f-4d26-b60d-72804b220afb}, !- Layer 2
  {76a67aa7-457e-4574-8c29-234b984fe14d}; !- Layer 3

OS:StandardsInformation:Construction,
  {011dd94e-d021-4d2b-a03b-a126c240d15c}, !- Handle
  {d671ff89-6d21-455e-826d-c358b963fb16}, !- Construction Name
  InteriorWall,                           !- Intended Surface Type
  ;                                       !- Standards Construction Type

OS:Construction,
  {08f05a11-d713-4046-8054-3a7acc6b22ea}, !- Handle
  Interior Ceiling,                       !- Name
  ,                                       !- Surface Rendering Name
  {a951aa35-0bae-43f8-be88-1a62cd92c75a}, !- Layer 1
  {ec7d89af-b8dd-4560-a7a0-027bb9215d84}, !- Layer 2
  {88389d67-49c2-4cdf-82e3-4dccdeacb8dd}; !- Layer 3

OS:StandardsInformation:Construction,
  {3f57b78d-6f2b-4d5b-acd9-fe956fec8338}, !- Handle
  {08f05a11-d713-4046-8054-3a7acc6b22ea}, !- Construction Name
  InteriorCeiling,                        !- Intended Surface Type
  ;                                       !- Standards Construction Type

OS:Construction,
  {8c0b4ed4-0cb6-446d-812d-57c2af5214fc}, !- Handle
  ASHRAE 90.1-2004 ExtWindow ClimateZone 4-6, !- Name
  ,                                       !- Surface Rendering Name
  {ef055310-701d-46e4-83fd-e892d92e01e2}; !- Layer 1

OS:StandardsInformation:Construction,
  {f2102efa-f9c1-4547-afb5-45c65ed50307}, !- Handle
  {8c0b4ed4-0cb6-446d-812d-57c2af5214fc}, !- Construction Name
  ExteriorWindow,                         !- Intended Surface Type
  ;                                       !- Standards Construction Type

OS:Construction,
  {998d8581-c925-4587-834f-edd2996cc534}, !- Handle
  Exterior Door,                          !- Name
  ,                                       !- Surface Rendering Name
  {a43df7f5-b976-4fb5-ac7e-87677345861c}, !- Layer 1
  {83c94d29-5ac3-4186-9845-5c7f700359ca}; !- Layer 2

OS:StandardsInformation:Construction,
  {7969404a-5ec3-4c57-8c9e-5ea8f4a3bbf9}, !- Handle
  {998d8581-c925-4587-834f-edd2996cc534}, !- Construction Name
  ExteriorDoor,                           !- Intended Surface Type
  ;                                       !- Standards Construction Type

OS:Construction,
  {014711c7-e748-4d61-a6e7-e92cd9e2913f}, !- Handle
  Exterior Door - Non-Swinging,           !- Name
  ,                                       !- Surface Rendering Name
  {a43df7f5-b976-4fb5-ac7e-87677345861c}, !- Layer 1
  {eb4fffc8-5f29-4ae8-b250-9bbac6f01f1a}; !- Layer 2

OS:StandardsInformation:Construction,
  {91b19ca7-6303-412d-96d5-397492a37835}, !- Handle
  {014711c7-e748-4d61-a6e7-e92cd9e2913f}, !- Construction Name
  ExteriorDoor,                           !- Intended Surface Type
  NonSwinging;                            !- Standards Construction Type

OS:Construction,
  {4cbdb308-b9a8-43ec-ae29-2260265a05d1}, !- Handle
  ASHRAE 90.1-2004 Skylight ClimateZone 4-5, !- Name
  ,                                       !- Surface Rendering Name
  {b5fe273d-7abd-4b58-90fd-7afcf6a5bed1}; !- Layer 1

OS:StandardsInformation:Construction,
  {98b4f0cb-3fe8-4dbf-8ee1-b1f7c23942a9}, !- Handle
  {4cbdb308-b9a8-43ec-ae29-2260265a05d1}, !- Construction Name
  ExteriorWindow,                         !- Intended Surface Type
  ;                                       !- Standards Construction Type

OS:Construction,
  {01752da5-d276-4b55-9d5a-71ae59ec2a9c}, !- Handle
  Interior Window,                        !- Name
  ,                                       !- Surface Rendering Name
  {17feeb86-4ad9-4c1a-974e-cf5fee54fd15}; !- Layer 1

OS:StandardsInformation:Construction,
  {26788184-edb4-40bb-89e7-1ac5f3485bc4}, !- Handle
  {01752da5-d276-4b55-9d5a-71ae59ec2a9c}, !- Construction Name
  InteriorWindow,                         !- Intended Surface Type
  ;                                       !- Standards Construction Type

OS:Construction,
  {43339581-80a5-4e4e-83ed-95567d7a47eb}, !- Handle
  Interior Door,                          !- Name
  ,                                       !- Surface Rendering Name
  {2e251d14-8a6d-458b-a724-46a926c0d831}; !- Layer 1

OS:StandardsInformation:Construction,
  {9632613b-99a9-4fad-91e1-dea5451ee339}, !- Handle
  {43339581-80a5-4e4e-83ed-95567d7a47eb}, !- Construction Name
  InteriorDoor,                           !- Intended Surface Type
  ;                                       !- Standards Construction Type

OS:Material,
  {2e251d14-8a6d-458b-a724-46a926c0d831}, !- Handle
  G05 25mm wood,                          !- Name
  MediumSmooth,                           !- Roughness
  0.0254,                                 !- Thickness {m}
  0.15,                                   !- Conductivity {W/m-K}
  608,                                    !- Density {kg/m3}
  1630,                                   !- Specific Heat {J/kg-K}
  0.9,                                    !- Thermal Absorptance
  0.5,                                    !- Solar Absorptance
  0.5;                                    !- Visible Absorptance

OS:Material,
  {ecc4c686-e753-4d95-aa85-4fdf742c39df}, !- Handle
  MAT-CC05 4 HW CONCRETE,                 !- Name
  Rough,                                  !- Roughness
  0.1016,                                 !- Thickness {m}
  1.311,                                  !- Conductivity {W/m-K}
  2240,                                   !- Density {kg/m3}
  836.800000000001,                       !- Specific Heat {J/kg-K}
  0.9,                                    !- Thermal Absorptance
  0.85,                                   !- Solar Absorptance
  0.85;                                   !- Visible Absorptance

OS:Material:NoMass,
  {ac5f3e17-f653-4bfa-afe9-afb7444790f6}, !- Handle
  CP02 CARPET PAD,                        !- Name
  Smooth,                                 !- Roughness
  0.1,                                    !- Thermal Resistance {m2-K/W}
  0.9,                                    !- Thermal Absorptance
  0.8,                                    !- Solar Absorptance
  0.8;                                    !- Visible Absorptance

OS:Material,
  {0f8d1bcc-64c3-43d3-997e-1a2a0cbb4156}, !- Handle
  1IN Stucco,                             !- Name
  Smooth,                                 !- Roughness
  0.0253,                                 !- Thickness {m}
  0.691799999999999,                      !- Conductivity {W/m-K}
  1858,                                   !- Density {kg/m3}
  836.999999999999,                       !- Specific Heat {J/kg-K}
  0.9,                                    !- Thermal Absorptance
  0.92,                                   !- Solar Absorptance
  0.92;                                   !- Visible Absorptance

OS:Material,
  {b2b7f4f0-47b2-4199-bf62-b08a2ba8b2f3}, !- Handle
  8IN CONCRETE HW RefBldg,                !- Name
  Rough,                                  !- Roughness
  0.2032,                                 !- Thickness {m}
  1.311,                                  !- Conductivity {W/m-K}
  2240,                                   !- Density {kg/m3}
  836.800000000001,                       !- Specific Heat {J/kg-K}
  0.9,                                    !- Thermal Absorptance
  0.7,                                    !- Solar Absorptance
  0.7;                                    !- Visible Absorptance

OS:Material,
  {9436d7a5-aa6d-4b58-8700-9b2d9857da10}, !- Handle
  Mass NonRes Wall Insulation-1.43,       !- Name
  MediumRough,                            !- Roughness
  0.0495494599433394,                     !- Thickness {m}
  0.049,                                  !- Conductivity {W/m-K}
  265,                                    !- Density {kg/m3}
  836.800000000001,                       !- Specific Heat {J/kg-K}
  0.9,                                    !- Thermal Absorptance
  0.7,                                    !- Solar Absorptance
  0.7;                                    !- Visible Absorptance

OS:Material,
  {32febe3c-2500-4c60-9129-9c0f370bc165}, !- Handle
  1/2IN Gypsum,                           !- Name
  Smooth,                                 !- Roughness
  0.0127,                                 !- Thickness {m}
  0.16,                                   !- Conductivity {W/m-K}
  784.9,                                  !- Density {kg/m3}
  830.000000000001,                       !- Specific Heat {J/kg-K}
  0.9,                                    !- Thermal Absorptance
  0.4,                                    !- Solar Absorptance
  0.4;                                    !- Visible Absorptance

OS:Material,
  {8dac83c0-eb8c-4293-a122-edcbc0ff1783}, !- Handle
  Roof Membrane,                          !- Name
  VeryRough,                              !- Roughness
  0.0095,                                 !- Thickness {m}
  0.16,                                   !- Conductivity {W/m-K}
  1121.29,                                !- Density {kg/m3}
  1460,                                   !- Specific Heat {J/kg-K}
  0.9,                                    !- Thermal Absorptance
  0.7,                                    !- Solar Absorptance
  0.7;                                    !- Visible Absorptance

OS:Material,
  {11f4fe95-d8fc-4c71-87a7-fd62819907ce}, !- Handle
  IEAD NonRes Roof Insulation-2.85,       !- Name
  MediumRough,                            !- Roughness
  0.127338688569477,                      !- Thickness {m}
  0.049,                                  !- Conductivity {W/m-K}
  265,                                    !- Density {kg/m3}
  836.800000000001,                       !- Specific Heat {J/kg-K}
  0.9,                                    !- Thermal Absorptance
  0.7,                                    !- Solar Absorptance
  0.7;                                    !- Visible Absorptance

OS:Material,
  {dc9e786f-8caf-4dd1-a54a-4688c03a1e57}, !- Handle
  Metal Decking,                          !- Name
  MediumSmooth,                           !- Roughness
  0.0015,                                 !- Thickness {m}
  45.006,                                 !- Conductivity {W/m-K}
  7680,                                   !- Density {kg/m3}
  418.4,                                  !- Specific Heat {J/kg-K}
  0.9,                                    !- Thermal Absorptance
  0.6,                                    !- Solar Absorptance
  0.6;                                    !- Visible Absorptance

OS:Material,
  {88389d67-49c2-4cdf-82e3-4dccdeacb8dd}, !- Handle
  F16 Acoustic tile,                      !- Name
  MediumSmooth,                           !- Roughness
  0.0191,                                 !- Thickness {m}
  0.06,                                   !- Conductivity {W/m-K}
  368,                                    !- Density {kg/m3}
  590.000000000002,                       !- Specific Heat {J/kg-K}
  0.9,                                    !- Thermal Absorptance
  0.3,                                    !- Solar Absorptance
  0.3;                                    !- Visible Absorptance

OS:Material:AirGap,
  {ec7d89af-b8dd-4560-a7a0-027bb9215d84}, !- Handle
  F05 Ceiling air space resistance,       !- Name
  0.18;                                   !- Thermal Resistance {m2-K/W}

OS:Material,
  {a951aa35-0bae-43f8-be88-1a62cd92c75a}, !- Handle
  M11 100mm lightweight concrete,         !- Name
  MediumRough,                            !- Roughness
  0.1016,                                 !- Thickness {m}
  0.53,                                   !- Conductivity {W/m-K}
  1280,                                   !- Density {kg/m3}
  840.000000000002,                       !- Specific Heat {J/kg-K}
  0.9,                                    !- Thermal Absorptance
  0.5,                                    !- Solar Absorptance
  0.5;                                    !- Visible Absorptance

OS:Material,
  {76a67aa7-457e-4574-8c29-234b984fe14d}, !- Handle
  G01a 19mm gypsum board,                 !- Name
  MediumSmooth,                           !- Roughness
  0.019,                                  !- Thickness {m}
  0.16,                                   !- Conductivity {W/m-K}
  800,                                    !- Density {kg/m3}
  1090,                                   !- Specific Heat {J/kg-K}
  0.9,                                    !- Thermal Absorptance
  0.4,                                    !- Solar Absorptance
  0.4;                                    !- Visible Absorptance

OS:Material:AirGap,
  {9d33308e-742f-4d26-b60d-72804b220afb}, !- Handle
  F04 Wall air space resistance,          !- Name
  0.15;                                   !- Thermal Resistance {m2-K/W}

OS:WindowMaterial:SimpleGlazingSystem,
  {ef055310-701d-46e4-83fd-e892d92e01e2}, !- Handle
  Fixed Window 3.24/0.39/0.31,            !- Name
  3.23646,                                !- U-Factor {W/m2-K}
  0.39,                                   !- Solar Heat Gain Coefficient
  0.31;                                   !- Visible Transmittance

OS:Material,
  {a43df7f5-b976-4fb5-ac7e-87677345861c}, !- Handle
  F08 Metal surface,                      !- Name
  Smooth,                                 !- Roughness
  0.0008,                                 !- Thickness {m}
  45.2800000000001,                       !- Conductivity {W/m-K}
  7823.99999999999,                       !- Density {kg/m3}
  500,                                    !- Specific Heat {J/kg-K}
  0.9,                                    !- Thermal Absorptance
  0.7,                                    !- Solar Absorptance
  0.7;                                    !- Visible Absorptance

OS:Material,
  {83c94d29-5ac3-4186-9845-5c7f700359ca}, !- Handle
  I01 25mm insulation board,              !- Name
  MediumRough,                            !- Roughness
  0.0254,                                 !- Thickness {m}
  0.03,                                   !- Conductivity {W/m-K}
  43,                                     !- Density {kg/m3}
  1210,                                   !- Specific Heat {J/kg-K}
  0.9,                                    !- Thermal Absorptance
  0.6,                                    !- Solar Absorptance
  0.6;                                    !- Visible Absorptance

OS:Material,
  {eb4fffc8-5f29-4ae8-b250-9bbac6f01f1a}, !- Handle
  I02 50mm insulation board,              !- Name
  MediumRough,                            !- Roughness
  0.0508,                                 !- Thickness {m}
  0.03,                                   !- Conductivity {W/m-K}
  43,                                     !- Density {kg/m3}
  1210,                                   !- Specific Heat {J/kg-K}
  0.9,                                    !- Thermal Absorptance
  0.6,                                    !- Solar Absorptance
  0.6;                                    !- Visible Absorptance

OS:WindowMaterial:SimpleGlazingSystem,
  {b5fe273d-7abd-4b58-90fd-7afcf6a5bed1}, !- Handle
  Skylight no curb 2.1-5 per 90.12004 CZ 4-5, !- Name
  3.91800170536831,                       !- U-Factor {W/m2-K}
  0.39,                                   !- Solar Heat Gain Coefficient
  0.2;                                    !- Visible Transmittance

OS:WindowMaterial:Glazing,
  {17feeb86-4ad9-4c1a-974e-cf5fee54fd15}, !- Handle
  Clear 3mm,                              !- Name
  SpectralAverage,                        !- Optical Data Type
  ,                                       !- Window Glass Spectral Data Set Name
  0.00299999999999999,                    !- Thickness {m}
  0.837,                                  !- Solar Transmittance at Normal Incidence
  0.075,                                  !- Front Side Solar Reflectance at Normal Incidence
  0,                                      !- Back Side Solar Reflectance at Normal Incidence
  0.898,                                  !- Visible Transmittance at Normal Incidence
  0.081,                                  !- Front Side Visible Reflectance at Normal Incidence
  0,                                      !- Back Side Visible Reflectance at Normal Incidence
  0,                                      !- Infrared Transmittance at Normal Incidence
  0.84,                                   !- Front Side Infrared Hemispherical Emissivity
  0.84,                                   !- Back Side Infrared Hemispherical Emissivity
  0.9,                                    !- Conductivity {W/m-K}
  1,                                      !- Dirt Correction Factor for Solar and Visible Transmittance
  No;                                     !- Solar Diffusing

OS:People,
  {e5220c5b-c42a-42ee-bc52-2332598b91e0}, !- Handle
  BreakRoom|PeopleInst,                   !- Name
  {4fbfe974-ba25-498a-a5d8-d06872c68157}, !- People Definition Name
  {7a116c03-d92a-4cf1-8b37-b0b3aca74d52}, !- Space or SpaceType Name
  {d4fd4624-a9c5-4ff4-baab-a3f9ac4b6810}, !- Number of People Schedule Name
  {77dee139-d4f7-445e-af07-7e6b2e175946}, !- Activity Level Schedule Name
  ,                                       !- Surface Name/Angle Factor List Name
  ,                                       !- Work Efficiency Schedule Name
  ,                                       !- Clothing Insulation Schedule Name
  ,                                       !- Air Velocity Schedule Name
  0.037037037037037;                      !- Multiplier

OS:People:Definition,
  {4fbfe974-ba25-498a-a5d8-d06872c68157}, !- Handle
  BreakRoom|PeopleDef,                    !- Name
  People/Area,                            !- Number of People Calculation Method
  ,                                       !- Number of People {people}
  0.538195520835486,                      !- People per Space Floor Area {person/m2}
  ,                                       !- Space Floor Area per Person {m2/person}
  0.3;                                    !- Fraction Radiant

OS:Schedule:Ruleset,
  {d4fd4624-a9c5-4ff4-baab-a3f9ac4b6810}, !- Handle
  0800|1700|Office|default|elec_equip,    !- Name
  {a5e9b443-a515-44f1-8d48-84ecafef7c3d}, !- Schedule Type Limits Name
  {f85617c9-84a3-4445-b5c9-b12013325822}, !- Default Day Schedule Name
  {99849465-0f4a-4bdd-bd51-3d79aea00db2}, !- Summer Design Day Schedule Name
  {9fc9cccc-fbfb-496e-a58c-0d4b891d9da8}; !- Winter Design Day Schedule Name

OS:Schedule:Day,
  {f85617c9-84a3-4445-b5c9-b12013325822}, !- Handle
  0800|1700|Office|default|elec_equip |default, !- Name
  {a5e9b443-a515-44f1-8d48-84ecafef7c3d}, !- Schedule Type Limits Name
  ,                                       !- Interpolate to Timestep
  8,                                      !- Hour 1
  0,                                      !- Minute 1
  0.4,                                    !- Value Until Time 1
  12,                                     !- Hour 2
  0,                                      !- Minute 2
  0.9,                                    !- Value Until Time 2
  13,                                     !- Hour 3
  0,                                      !- Minute 3
  0.8,                                    !- Value Until Time 3