
OS:Version,
  {07b320bf-2ab4-49fc-9427-40bc82dc1167}, !- Handle
  1.5.5;                                  !- Version Identifier

OS:ClimateZones,
  {135edfab-17e7-40db-a436-27d385a8cd6d}, !- Handle
  ,                                       !- Active Institution
  ,                                       !- Active Year
  ASHRAE,                                 !- Climate Zone Institution Name 1
  ANSI/ASHRAE Standard 169,               !- Climate Zone Document Name 1
  2006,                                   !- Climate Zone Document Year 1
  ,                                       !- Climate Zone Value 1
  CEC,                                    !- Climate Zone Institution Name 2
  California Climate Zone Descriptions,   !- Climate Zone Document Name 2
  1995,                                   !- Climate Zone Document Year 2
  ;                                       !- Climate Zone Value 2

OS:YearDescription,
  {513d8dda-86cb-442a-b01c-1f7f0e0ac70e}; !- Handle

OS:RadianceParameters,
  {270a96f1-3c86-4b75-a667-cdf22790e2c8}, !- Handle
  1,                                      !- Accumulated Rays per Record
  0,                                      !- Direct Threshold
  1,                                      !- Direct Certainty
  1,                                      !- Direct Jitter
  1,                                      !- Direct Pretest
  6,                                      !- Ambient Bounces VMX
  2,                                      !- Ambient Bounces DMX
  4050,                                   !- Ambient Divisions VMX
  512,                                    !- Ambient Divisions DMX
  256,                                    !- Ambient Supersamples
  0.001,                                  !- Limit Weight VMX
  0.001,                                  !- Limit Weight DMX
  500,                                    !- Klems Sampling Density
  146;                                    !- Sky Discretization Resolution

OS:SimulationControl,
  {2c487a4c-bac9-4ac5-b669-1e49d9da7c2b}, !- Handle
  ,                                       !- Do Zone Sizing Calculation
  ,                                       !- Do System Sizing Calculation
  ,                                       !- Do Plant Sizing Calculation
  No,                                     !- Run Simulation for Sizing Periods
  ,                                       !- Run Simulation for Weather File Run Periods
  0.04,                                   !- Loads Convergence Tolerance Value
  ,                                       !- Temperature Convergence Tolerance Value {deltaC}
  ,                                       !- Solar Distribution
  ,                                       !- Maximum Number of Warmup Days
  2;                                      !- Minimum Number of Warmup Days

OS:Sizing:Parameters,
  {dde5af6f-7923-4600-a28a-7556673a0266}, !- Handle
  1.25,                                   !- Heating Sizing Factor
  1.15;                                   !- Cooling Sizing Factor

OS:ProgramControl,
  {05027a99-f2b3-4aeb-afc6-1425fbb4371d}; !- Handle

OS:Timestep,
  {4ebc9f1e-4707-402e-9844-67eb1ffbd522}, !- Handle
  2;                                      !- Number of Timesteps per Hour

OS:OutputControl:ReportingTolerances,
  {65797aa2-06a9-45fe-b69d-bc6e060399d3}; !- Handle

OS:ConvergenceLimits,
  {9fc11aba-8822-4f3d-970c-46391ba4040d}; !- Handle

OS:ShadowCalculation,
  {ca758bea-4416-4626-9bba-3d8795c79bd6}, !- Handle
  7,                                      !- Calculation Frequency
  15000;                                  !- Maximum Figures in Shadow Overlap Calculations

OS:SurfaceConvectionAlgorithm:Inside,
  {aaabfc36-718a-4ab0-b622-f186ebb45230}, !- Handle
  TARP;                                   !- Algorithm

OS:SurfaceConvectionAlgorithm:Outside,
  {9a0a9f6f-4bbd-4b12-a121-9492a1fcd7d6}, !- Handle
  DOE-2;                                  !- Algorithm

OS:HeatBalanceAlgorithm,
  {9d93e563-e1e0-46d7-9e39-d1c8aceb7212}, !- Handle
  ConductionTransferFunction,             !- Algorithm
  200;                                    !- Surface Temperature Upper Limit {F}

OS:ZoneAirHeatBalanceAlgorithm,
  {8520d93e-310f-4696-9bcd-36228bfdd743}, !- Handle
  AnalyticalSolution;                     !- Algorithm

OS:ZoneAirContaminantBalance,
  {eb5fc3ae-fb22-4160-8fcb-3e3b22b000d3}; !- Handle

OS:ZoneCapacitanceMultiplier:ResearchSpecial,
  {4020ce4f-5a7a-4849-8028-8305d7b751b1}, !- Handle
  ,                                       !- Temperature Capacity Multiplier
  ,                                       !- Humidity Capacity Multiplier
  ;                                       !- Carbon Dioxide Capacity Multiplier

OS:RunPeriod,
  {28df894d-6af9-4fb8-8f56-df1753344aa3}, !- Handle
  Run Period 1,                           !- Name
  1,                                      !- Begin Month
  1,                                      !- Begin Day of Month
  12,                                     !- End Month
  31,                                     !- End Day of Month
  ,                                       !- Use Weather File Holidays and Special Days
  ,                                       !- Use Weather File Daylight Saving Period
  ,                                       !- Apply Weekend Holiday Rule
  ,                                       !- Use Weather File Rain Indicators
  ,                                       !- Use Weather File Snow Indicators
  ;                                       !- Number of Times Runperiod to be Repeated

OS:Building,
  {bf305633-c5a1-4881-9edf-ca5e1a8e1274}, !- Handle
  Building 1,                             !- Name
  ,                                       !- Building Sector Type
  ,                                       !- North Axis {deg}
  ,                                       !- Nominal Floor to Floor Height {m}
  ,                                       !- Space Type Name
  ,                                       !- Default Construction Set Name
  {42f0c592-87dd-4f5d-a722-00b436f776b7}, !- Default Schedule Set Name
  ,                                       !- Standards Number of Stories
  ,                                       !- Standards Number of Above Ground Stories
  Office;                                 !- Standards Building Type

OS:LifeCycleCost:Parameters,
  {231cf8a0-f0e7-4251-a99f-11f0d464e661}, !- Handle
  FEMP,                                   !- Analysis Type
  ,                                       !- Discounting Convention
  ,                                       !- Inflation Approach
  ,                                       !- Real Discount Rate
  ,                                       !- Nominal Discount Rate
  ,                                       !- Inflation
  ,                                       !- Base Date Month
  ,                                       !- Base Date Year
  ,                                       !- Service Date Month
  ,                                       !- Service Date Year
  ,                                       !- Length of Study Period in Years
  ,                                       !- Tax Rate
  ,                                       !- Depreciation Method
  Yes;                                    !- Use NIST Fuel Escalation Rates

OS:Facility,
  {3ba8e45b-b833-44eb-a723-ea6c3946dc96}; !- Handle

OS:SpaceType,
  {f029e8c8-7848-418a-a9a3-86b52f6c2185}, !- Handle
  Office|BlendA|DOE Ref 2004|ASHRAE 169-2006-5A, !- Name
  {5f6018c5-d22f-43d6-bf7a-df1d6dafce9a}, !- Default Construction Set Name
  ,                                       !- Default Schedule Set Name
  {a4a46451-d323-404d-8f43-66da445b906f}, !- Group Rendering Name
  {8bb6e32b-9cc4-4997-9f6f-33208e08ce04}, !- Design Specification Outdoor Air Object Name
  Office,                                 !- Standards Building Type
  BlendA;                                 !- Standards Space Type

OS:Rendering:Color,
  {a4a46451-d323-404d-8f43-66da445b906f}, !- Handle
  Rendering Color 1,                      !- Name
  120,                                    !- Rendering Red Value
  230,                                    !- Rendering Green Value
  199;                                    !- Rendering Blue Value

OS:SpaceType,
  {4aab0850-2633-4d06-ba7f-1a0cc3934e4e}, !- Handle
  Office|BlendB|DOE Ref 2004|ASHRAE 169-2006-5A, !- Name
  {5f6018c5-d22f-43d6-bf7a-df1d6dafce9a}, !- Default Construction Set Name
  ,                                       !- Default Schedule Set Name
  {65a47cb1-dd0d-4957-8653-0539ca0d25ba}, !- Group Rendering Name
  {01b5af7c-bd6c-42f6-b3e0-596e5b1425e4}, !- Design Specification Outdoor Air Object Name
  Office,                                 !- Standards Building Type
  BlendB;                                 !- Standards Space Type

OS:Rendering:Color,
  {65a47cb1-dd0d-4957-8653-0539ca0d25ba}, !- Handle
  Rendering Color 2,                      !- Name
  120,                                    !- Rendering Red Value
  149,                                    !- Rendering Green Value
  230;                                    !- Rendering Blue Value

OS:SpaceType,
  {d64efabc-5ea5-43e4-af85-ce996f5cf68e}, !- Handle
  Office|BlendC|DOE Ref 2004|ASHRAE 169-2006-5A, !- Name
  {5f6018c5-d22f-43d6-bf7a-df1d6dafce9a}, !- Default Construction Set Name
  ,                                       !- Default Schedule Set Name
  {ffabe564-a629-432a-b635-14995d2d7c18}, !- Group Rendering Name
  {9100bfc0-9dca-49ec-9dc0-c5ed25cfd8a5}, !- Design Specification Outdoor Air Object Name
  Office,                                 !- Standards Building Type
  BlendC;                                 !- Standards Space Type

OS:Rendering:Color,
  {ffabe564-a629-432a-b635-14995d2d7c18}, !- Handle
  Rendering Color 3,                      !- Name
  41,                                     !- Rendering Red Value
  31,                                     !- Rendering Green Value
  169;                                    !- Rendering Blue Value

OS:SpaceType,
  {965d0b21-96e6-4f8f-98e0-06be4368dbd2}, !- Handle
  Office|Restroom|DOE Ref 2004|ASHRAE 169-2006-5A, !- Name
  {5f6018c5-d22f-43d6-bf7a-df1d6dafce9a}, !- Default Construction Set Name
  {31492a67-cf21-438b-b105-464bfc936820}, !- Default Schedule Set Name
  {2b11df73-f661-489e-b7ec-c6c6e844779f}, !- Group Rendering Name
  {83ffb514-09c9-48ac-8f6b-65bf526f3775}, !- Design Specification Outdoor Air Object Name
  Office,                                 !- Standards Building Type
  Restroom;                               !- Standards Space Type

OS:Rendering:Color,
  {2b11df73-f661-489e-b7ec-c6c6e844779f}, !- Handle
  Rendering Color 4,                      !- Name
  169,                                    !- Rendering Red Value
  169,                                    !- Rendering Green Value
  31;                                     !- Rendering Blue Value

OS:Schedule:Ruleset,
  {71211c01-0e7e-4157-953e-19006923cab4}, !- Handle
  0800|1700|Office|default|hoo,           !- Name
  {bf21260c-c4c9-4d65-abe5-7de4cce07fa4}, !- Schedule Type Limits Name
  {ae67a865-c58f-48fe-bb9a-2a0a600b356c}, !- Default Day Schedule Name
  {201651cb-4776-4dba-98ca-c8297323b01c}, !- Summer Design Day Schedule Name
  {bb9822b1-2630-4491-a9fa-daeea023ffe1}; !- Winter Design Day Schedule Name

OS:Schedule:Day,
  {ae67a865-c58f-48fe-bb9a-2a0a600b356c}, !- Handle
  0800|1700|Office|default|hoo Schedule Week Day, !- Name
  {bf21260c-c4c9-4d65-abe5-7de4cce07fa4}, !- Schedule Type Limits Name
  ,                                       !- Interpolate to Timestep
  8,                                      !- Hour 1
  0,                                      !- Minute 1
  0,                                      !- Value Until Time 1
  17,                                     !- Hour 2
  0,                                      !- Minute 2
  1,                                      !- Value Until Time 2
  24,                                     !- Hour 3
  0,                                      !- Minute 3
  0;                                      !- Value Until Time 3

OS:Schedule:Day,
  {0a4081e1-6585-40d0-9263-6677b5cf645a}, !- Handle
  Schedule Day 2,                         !- Name
  ,                                       !- Schedule Type Limits Name
  ,                                       !- Interpolate to Timestep
  24,                                     !- Hour 1
  0,                                      !- Minute 1
  0;                                      !- Value Until Time 1

OS:Schedule:Day,
  {bb9822b1-2630-4491-a9fa-daeea023ffe1}, !- Handle
  0800|1700|Office|default|hoo Winter Design Day, !- Name
  {bf21260c-c4c9-4d65-abe5-7de4cce07fa4}, !- Schedule Type Limits Name
  ,                                       !- Interpolate to Timestep
  24,                                     !- Hour 1
  0,                                      !- Minute 1
  0;                                      !- Value Until Time 1

OS:Schedule:Day,
  {204b14c4-59cc-4afb-9647-ae482e8e3d3b}, !- Handle
  Schedule Day 3,                         !- Name
  ,                                       !- Schedule Type Limits Name
  ,                                       !- Interpolate to Timestep
  24,                                     !- Hour 1
  0,                                      !- Minute 1
  0;                                      !- Value Until Time 1

OS:Schedule:Day,
  {201651cb-4776-4dba-98ca-c8297323b01c}, !- Handle
  0800|1700|Office|default|hoo Summer Design Day, !- Name
  {bf21260c-c4c9-4d65-abe5-7de4cce07fa4}, !- Schedule Type Limits Name
  ,                                       !- Interpolate to Timestep
  24,                                     !- Hour 1
  0,                                      !- Minute 1
  1;                                      !- Value Until Time 1

OS:DefaultScheduleSet,
  {42f0c592-87dd-4f5d-a722-00b436f776b7}, !- Handle
  Building Hours of Operation,            !- Name
  {71211c01-0e7e-4157-953e-19006923cab4}, !- Hours of Operation Schedule Name
  ,                                       !- Number of People Schedule Name
  ,                                       !- People Activity Level Schedule Name
  ,                                       !- Lighting Schedule Name
  ,                                       !- Electric Equipment Schedule Name
  ,                                       !- Gas Equipment Schedule Name
  ,                                       !- Hot Water Equipment Schedule Name
  ,                                       !- Infiltration Schedule Name
  ,                                       !- Steam Equipment Schedule Name
  ;                                       !- Other Equipment Schedule Name

OS:ScheduleTypeLimits,
  {bf21260c-c4c9-4d65-abe5-7de4cce07fa4}, !- Handle
  OnOff,                                  !- Name
  0,                                      !- Lower Limit Value {BasedOnField A4}
  1,                                      !- Upper Limit Value {BasedOnField A4}
  Discrete,                               !- Numeric Type
  Availability;                           !- Unit Type

OS:Schedule:Ruleset,
  {2a8b1917-ac6d-4e4f-adc4-f73f2108835c}, !- Handle
  0800|1700|Office|OpenOffice|occ,        !- Name
  {3d99652c-8b2c-4b6f-a8a8-c2ed8116006b}, !- Schedule Type Limits Name
  {62a912d9-2d12-4db4-ace7-a2b94c66c198}, !- Default Day Schedule Name
  {a521037e-1de5-4ddf-b31e-e236b298592e}, !- Summer Design Day Schedule Name
  {f1df1186-b39f-4cdd-9c2e-9b2f9e9a3226}; !- Winter Design Day Schedule Name

OS:ScheduleTypeLimits,
  {3d99652c-8b2c-4b6f-a8a8-c2ed8116006b}, !- Handle
  Occupancy Schedule Type Limits,         !- Name
  0,                                      !- Lower Limit Value {BasedOnField A4}
  1,                                      !- Upper Limit Value {BasedOnField A4}
  Continuous,                             !- Numeric Type
  Dimensionless;                          !- Unit Type

OS:Schedule:Day,
  {62a912d9-2d12-4db4-ace7-a2b94c66c198}, !- Handle
  0800|1700|Office|OpenOffice|occ |default, !- Name
  {3d99652c-8b2c-4b6f-a8a8-c2ed8116006b}, !- Schedule Type Limits Name
  ,                                       !- Interpolate to Timestep
  5,                                      !- Hour 1
  0,                                      !- Minute 1
  0,                                      !- Value Until Time 1
  5,                                      !- Hour 2
  30,                                     !- Minute 2
  0.05,                                   !- Value Until Time 2
  6,                                      !- Hour 3
  0,                                      !- Minute 3
  0.1,                                    !- Value Until Time 3
  6,                                      !- Hour 4
  30,                                     !- Minute 4
  0.15,                                   !- Value Until Time 4
  7,                                      !- Hour 5
  0,                                      !- Minute 5
  0.2,                                    !- Value Until Time 5
  7,                                      !- Hour 6
  30,                                     !- Minute 6
  0.25,                                   !- Value Until Time 6
  8,                                      !- Hour 7
  0,                                      !- Minute 7
  0.3,                                    !- Value Until Time 7
  12,                                     !- Hour 8
  0,                                      !- Minute 8
  0.85,                                   !- Value Until Time 8
  13,                                     !- Hour 9
  0,                                      !- Minute 9
  0.51,                                   !- Value Until Time 9
  17,                                     !- Hour 10
  0,                                      !- Minute 10
  0.85,                                   !- Value Until Time 10
  17,                                     !- Hour 11
  30,                                     !- Minute 11
  0.76,                                   !- Value Until Time 11
  18,                                     !- Hour 12
  0,                                      !- Minute 12
  0.68,                                   !- Value Until Time 12
  18,                                     !- Hour 13
  30,                                     !- Minute 13
  0.6,                                    !- Value Until Time 13
  19,                                     !- Hour 14
  0,                                      !- Minute 14
  0.51,                                   !- Value Until Time 14
  19,                                     !- Hour 15
  30,                                     !- Minute 15
  0.43,                                   !- Value Until Time 15
  20,                                     !- Hour 16
  0,                                      !- Minute 16
  0.34,                                   !- Value Until Time 16
  20,                                     !- Hour 17
  30,                                     !- Minute 17
  0.26,                                   !- Value Until Time 17
  21,                                     !- Hour 18
  0,                                      !- Minute 18
  0.17,                                   !- Value Until Time 18
  21,                                     !- Hour 19
  30,                                     !- Minute 19
  0.09,                                   !- Value Until Time 19
  24,                                     !- Hour 20
  0,                                      !- Minute 20
  0;                                      !- Value Until Time 20

OS:Schedule:Day,
  {a521037e-1de5-4ddf-b31e-e236b298592e}, !- Handle
  0800|1700|Office|OpenOffice|occ Summer Design Day, !- Name
  {3d99652c-8b2c-4b6f-a8a8-c2ed8116006b}, !- Schedule Type Limits Name
  ,                                       !- Interpolate to Timestep
  5,                                      !- Hour 1
  0,                                      !- Minute 1
  0,                                      !- Value Until Time 1
  5,                                      !- Hour 2
  30,                                     !- Minute 2
  0.05,                                   !- Value Until Time 2
  6,                                      !- Hour 3
  0,                                      !- Minute 3
  0.1,                                    !- Value Until Time 3
  6,                                      !- Hour 4
  30,                                     !- Minute 4
  0.15,                                   !- Value Until Time 4
  7,                                      !- Hour 5
  0,                                      !- Minute 5
  0.2,                                    !- Value Until Time 5
  7,                                      !- Hour 6
  30,                                     !- Minute 6
  0.25,                                   !- Value Until Time 6
  20,                                     !- Hour 7
  0,                                      !- Minute 7
  1,                                      !- Value Until Time 7
  20,                                     !- Hour 8
  30,                                     !- Minute 8
  0.26,                                   !- Value Until Time 8
  21,                                     !- Hour 9
  0,                                      !- Minute 9
  0.17,                                   !- Value Until Time 9
  21,                                     !- Hour 10
  30,                                     !- Minute 10
  0.09,                                   !- Value Until Time 10
  24,                                     !- Hour 11
  0,                                      !- Minute 11
  0;                                      !- Value Until Time 11

OS:Schedule:Day,
  {f1df1186-b39f-4cdd-9c2e-9b2f9e9a3226}, !- Handle
  0800|1700|Office|OpenOffice|occ Winter Design Day, !- Name
  {3d99652c-8b2c-4b6f-a8a8-c2ed8116006b}, !- Schedule Type Limits Name
  ,                                       !- Interpolate to Timestep
  24,                                     !- Hour 1
  0,                                      !- Minute 1
  0;                                      !- Value Until Time 1

OS:Schedule:Rule,
  {fff8ac31-0966-45a8-a2b0-29eed0b98db5}, !- Handle
  0800|1700|Office|OpenOffice|occ |1/1-12/31|Sun Rule, !- Name
  {2a8b1917-ac6d-4e4f-adc4-f73f2108835c}, !- Schedule Ruleset Name
  0,                                      !- Rule Order
  {2672651d-cdec-471a-9860-6d4f18a4113d}, !- Day Schedule Name
  Yes,                                    !- Apply Sunday
  ,                                       !- Apply Monday
  ,                                       !- Apply Tuesday
  ,                                       !- Apply Wednesday
  ,                                       !- Apply Thursday
  ,                                       !- Apply Friday
  ,                                       !- Apply Saturday
  ,                                       !- Apply Holiday
  DateRange,                              !- Date Specification Type
  1,                                      !- Start Month
  1,                                      !- Start Day
  12,                                     !- End Month
  31;                                     !- End Day

OS:Schedule:Day,
  {2672651d-cdec-471a-9860-6d4f18a4113d}, !- Handle
  0800|1700|Office|OpenOffice|occ |1/1-12/31|Sun, !- Name
  {3d99652c-8b2c-4b6f-a8a8-c2ed8116006b}, !- Schedule Type Limits Name
  ,                                       !- Interpolate to Timestep
  24,                                     !- Hour 1
  0,                                      !- Minute 1
  0;                                      !- Value Until Time 1

OS:Schedule:Rule,
  {7293acc6-c707-40c1-95ed-bbf7574d35b1}, !- Handle
  0800|1700|Office|OpenOffice|occ |1/1-12/31|Sat Rule, !- Name
  {2a8b1917-ac6d-4e4f-adc4-f73f2108835c}, !- Schedule Ruleset Name
  1,                                      !- Rule Order
  {a0ea799b-8002-4774-968b-28f4460880d2}, !- Day Schedule Name
  ,                                       !- Apply Sunday
  ,                                       !- Apply Monday
  ,                                       !- Apply Tuesday
  ,                                       !- Apply Wednesday
  ,                                       !- Apply Thursday
  ,                                       !- Apply Friday
  Yes,                                    !- Apply Saturday
  ,                                       !- Apply Holiday
  DateRange,                              !- Date Specification Type
  1,                                      !- Start Month
  1,                                      !- Start Day
  12,                                     !- End Month
  31;                                     !- End Day

OS:Schedule:Day,
  {a0ea799b-8002-4774-968b-28f4460880d2}, !- Handle
  0800|1700|Office|OpenOffice|occ |1/1-12/31|Sat, !- Name
  {3d99652c-8b2c-4b6f-a8a8-c2ed8116006b}, !- Schedule Type Limits Name
  ,                                       !- Interpolate to Timestep
  5,                                      !- Hour 1
  0,                                      !- Minute 1
  0,                                      !- Value Until Time 1
  5,                                      !- Hour 2
  30,                                     !- Minute 2
  0.03,                                   !- Value Until Time 2
  6,                                      !- Hour 3
  0,                                      !- Minute 3
  0.07,                                   !- Value Until Time 3
  6,                                      !- Hour 4
  30,                                     !- Minute 4
  0.1,                                    !- Value Until Time 4
  7,                                      !- Hour 5
  0,                                      !- Minute 5
  0.13,                                   !- Value Until Time 5
  7,                                      !- Hour 6
  30,                                     !- Minute 6
  0.17,                                   !- Value Until Time 6
  8,                                      !- Hour 7
  0,                                      !- Minute 7
  0.2,                                    !- Value Until Time 7
  14,                                     !- Hour 8
  0,                                      !- Minute 8
  0.4,                                    !- Value Until Time 8
  14,                                     !- Hour 9
  30,                                     !- Minute 9
  0.18,                                   !- Value Until Time 9
  15,                                     !- Hour 10
  0,                                      !- Minute 10
  0.15,                                   !- Value Until Time 10
  15,                                     !- Hour 11
  30,                                     !- Minute 11
  0.13,                                   !- Value Until Time 11
  16,                                     !- Hour 12
  0,                                      !- Minute 12
  0.1,                                    !- Value Until Time 12
  16,                                     !- Hour 13
  30,                                     !- Minute 13
  0.08,                                   !- Value Until Time 13
  17,                                     !- Hour 14
  0,                                      !- Minute 14
  0.05,                                   !- Value Until Time 14
  17,                                     !- Hour 15
  30,                                     !- Minute 15
  0.03,                                   !- Value Until Time 15
  24,                                     !- Hour 16
  0,                                      !- Minute 16
  0;                                      !- Value Until Time 16

OS:Schedule:Ruleset,
  {7c667154-bd89-40e7-86e7-bfbea3310e1f}, !- Handle
  0800|1700|Office|default|elec_equip,    !- Name
  {af881ffe-f21f-4378-96dd-75d3317d22b1}, !- Schedule Type Limits Name
  {e1d47e42-7a8b-41db-9e6e-dd85fb8295a4}, !- Default Day Schedule Name
  {1109f4b9-ef59-4061-9baa-e1bd750f4cc9}, !- Summer Design Day Schedule Name
  {7f10d3be-b506-4fca-883f-a89dfde82759}; !- Winter Design Day Schedule Name

OS:ScheduleTypeLimits,
  {af881ffe-f21f-4378-96dd-75d3317d22b1}, !- Handle
  Equipment Schedule Type Limits,         !- Name
  0,                                      !- Lower Limit Value {BasedOnField A4}
  1,                                      !- Upper Limit Value {BasedOnField A4}
  Continuous,                             !- Numeric Type
  Dimensionless;                          !- Unit Type

OS:Schedule:Day,
  {e1d47e42-7a8b-41db-9e6e-dd85fb8295a4}, !- Handle
  0800|1700|Office|default|elec_equip |default, !- Name
  {af881ffe-f21f-4378-96dd-75d3317d22b1}, !- Schedule Type Limits Name
  ,                                       !- Interpolate to Timestep
  8,                                      !- Hour 1
  0,                                      !- Minute 1
  0.4,                                    !- Value Until Time 1
  12,                                     !- Hour 2
  0,                                      !- Minute 2
  0.9,                                    !- Value Until Time 2
  13,                                     !- Hour 3
  0,                                      !- Minute 3
  0.8,                                    !- Value Until Time 3
  16,                                     !- Hour 4
  0,                                      !- Minute 4
  0.9,                                    !- Value Until Time 4
  16,                                     !- Hour 5
  30,                                     !- Minute 5
  0.8,                                    !- Value Until Time 5
  17,                                     !- Hour 6
  0,                                      !- Minute 6
  0.7,                                    !- Value Until Time 6
  17,                                     !- Hour 7