
OS:Version,
  {9ca414b0-11c3-4faa-949c-8b26f623d7c9}, !- Handle
  1.5.5;                                  !- Version Identifier

OS:ClimateZones,
  {135edfab-17e7-40db-a436-27d385a8cd6d}, !- Handle
  ,                                       !- Active Institution
  ,                                       !- Active Year
  ASHRAE,                                 !- Climate Zone Institution Name 1
  ANSI/ASHRAE Standard 169,               !- Climate Zone Document Name 1
  2006,                                   !- Climate Zone Document Year 1
  ,                                       !- Climate Zone Value 1
  CEC,                                    !- Climate Zone Institution Name 2
  California Climate Zone Descriptions,   !- Climate Zone Document Name 2
  1995,                                   !- Climate Zone Document Year 2
  ;                                       !- Climate Zone Value 2

OS:YearDescription,
  {513d8dda-86cb-442a-b01c-1f7f0e0ac70e}; !- Handle

OS:RadianceParameters,
  {270a96f1-3c86-4b75-a667-cdf22790e2c8}, !- Handle
  1,                                      !- Accumulated Rays per Record
  0,                                      !- Direct Threshold
  1,                                      !- Direct Certainty
  1,                                      !- Direct Jitter
  1,                                      !- Direct Pretest
  6,                                      !- Ambient Bounces VMX
  2,                                      !- Ambient Bounces DMX
  4050,                                   !- Ambient Divisions VMX
  512,                                    !- Ambient Divisions DMX
  256,                                    !- Ambient Supersamples
  0.001,                                  !- Limit Weight VMX
  0.001,                                  !- Limit Weight DMX
  500,                                    !- Klems Sampling Density
  146;                                    !- Sky Discretization Resolution

OS:SimulationControl,
  {2c487a4c-bac9-4ac5-b669-1e49d9da7c2b}, !- Handle
  ,                                       !- Do Zone Sizing Calculation
  ,                                       !- Do System Sizing Calculation
  ,                                       !- Do Plant Sizing Calculation
  No,                                     !- Run Simulation for Sizing Periods
  ,                                       !- Run Simulation for Weather File Run Periods
  0.04,                                   !- Loads Convergence Tolerance Value
  ,                                       !- Temperature Convergence Tolerance Value {deltaC}
  ,                                       !- Solar Distribution
  ,                                       !- Maximum Number of Warmup Days
  2;                                      !- Minimum Number of Warmup Days

OS:Sizing:Parameters,
  {dde5af6f-7923-4600-a28a-7556673a0266}, !- Handle
  1.25,                                   !- Heating Sizing Factor
  1.15;                                   !- Cooling Sizing Factor

OS:ProgramControl,
  {05027a99-f2b3-4aeb-afc6-1425fbb4371d}; !- Handle

OS:Timestep,
  {4ebc9f1e-4707-402e-9844-67eb1ffbd522}, !- Handle
  2;                                      !- Number of Timesteps per Hour

OS:OutputControl:ReportingTolerances,
  {65797aa2-06a9-45fe-b69d-bc6e060399d3}; !- Handle

OS:ConvergenceLimits,
  {9fc11aba-8822-4f3d-970c-46391ba4040d}; !- Handle

OS:ShadowCalculation,
  {ca758bea-4416-4626-9bba-3d8795c79bd6}, !- Handle
  7,                                      !- Calculation Frequency
  15000;                                  !- Maximum Figures in Shadow Overlap Calculations

OS:SurfaceConvectionAlgorithm:Inside,
  {aaabfc36-718a-4ab0-b622-f186ebb45230}, !- Handle
  TARP;                                   !- Algorithm

OS:SurfaceConvectionAlgorithm:Outside,
  {9a0a9f6f-4bbd-4b12-a121-9492a1fcd7d6}, !- Handle
  DOE-2;                                  !- Algorithm

OS:HeatBalanceAlgorithm,
  {9d93e563-e1e0-46d7-9e39-d1c8aceb7212}, !- Handle
  ConductionTransferFunction,             !- Algorithm
  200;                                    !- Surface Temperature Upper Limit {F}

OS:ZoneAirHeatBalanceAlgorithm,
  {8520d93e-310f-4696-9bcd-36228bfdd743}, !- Handle
  AnalyticalSolution;                     !- Algorithm

OS:ZoneAirContaminantBalance,
  {eb5fc3ae-fb22-4160-8fcb-3e3b22b000d3}; !- Handle

OS:ZoneCapacitanceMultiplier:ResearchSpecial,
  {4020ce4f-5a7a-4849-8028-8305d7b751b1}, !- Handle
  ,                                       !- Temperature Capacity Multiplier
  ,                                       !- Humidity Capacity Multiplier
  ;                                       !- Carbon Dioxide Capacity Multiplier

OS:RunPeriod,
  {28df894d-6af9-4fb8-8f56-df1753344aa3}, !- Handle
  Run Period 1,                           !- Name
  1,                                      !- Begin Month
  1,                                      !- Begin Day of Month
  12,                                     !- End Month
  31,                                     !- End Day of Month
  ,                                       !- Use Weather File Holidays and Special Days
  ,                                       !- Use Weather File Daylight Saving Period
  ,                                       !- Apply Weekend Holiday Rule
  ,                                       !- Use Weather File Rain Indicators
  ,                                       !- Use Weather File Snow Indicators
  ;                                       !- Number of Times Runperiod to be Repeated

OS:Building,
  {bf305633-c5a1-4881-9edf-ca5e1a8e1274}, !- Handle
  Building 1,                             !- Name
  ,                                       !- Building Sector Type
  ,                                       !- North Axis {deg}
  ,                                       !- Nominal Floor to Floor Height {m}
  ,                                       !- Space Type Name
  ,                                       !- Default Construction Set Name
  {69b85a1e-4b3c-4ff5-ac00-09307e0ca011}, !- Default Schedule Set Name
  ,                                       !- Standards Number of Stories
  ,                                       !- Standards Number of Above Ground Stories
  Office;                                 !- Standards Building Type

OS:LifeCycleCost:Parameters,
  {231cf8a0-f0e7-4251-a99f-11f0d464e661}, !- Handle
  FEMP,                                   !- Analysis Type
  ,                                       !- Discounting Convention
  ,                                       !- Inflation Approach
  ,                                       !- Real Discount Rate
  ,                                       !- Nominal Discount Rate
  ,                                       !- Inflation
  ,                                       !- Base Date Month
  ,                                       !- Base Date Year
  ,                                       !- Service Date Month
  ,                                       !- Service Date Year
  ,                                       !- Length of Study Period in Years
  ,                                       !- Tax Rate
  ,                                       !- Depreciation Method
  Yes;                                    !- Use NIST Fuel Escalation Rates

OS:Facility,
  {3ba8e45b-b833-44eb-a723-ea6c3946dc96}; !- Handle

OS:SpaceType,
  {7cc366b4-1a4b-459b-bd39-873cc3c07433}, !- Handle
  Office|BlendA|DOE Ref 1980-2004|ASHRAE 169-2006-5A, !- Name
  {50938c40-85b5-48c3-9920-e64284b9dcd5}, !- Default Construction Set Name
  ,                                       !- Default Schedule Set Name
  {516e4e8e-d10c-4cc3-acf1-bbe4cf5c2820}, !- Group Rendering Name
  {177c4570-bc7c-46fe-99ad-3c1d5705da38}, !- Design Specification Outdoor Air Object Name
  Office,                                 !- Standards Building Type
  BlendA;                                 !- Standards Space Type

OS:Rendering:Color,
  {516e4e8e-d10c-4cc3-acf1-bbe4cf5c2820}, !- Handle
  Rendering Color 1,                      !- Name
  120,                                    !- Rendering Red Value
  230,                                    !- Rendering Green Value
  199;                                    !- Rendering Blue Value

OS:SpaceType,
  {68de3aef-717f-4d25-a941-771bbaac8ae7}, !- Handle
  Office|BlendB|DOE Ref 1980-2004|ASHRAE 169-2006-5A, !- Name
  {50938c40-85b5-48c3-9920-e64284b9dcd5}, !- Default Construction Set Name
  ,                                       !- Default Schedule Set Name
  {c8795181-bc88-434f-a25a-53eaedd7c1e1}, !- Group Rendering Name
  {c294efe6-fded-4586-8c09-f5ee070d9586}, !- Design Specification Outdoor Air Object Name
  Office,                                 !- Standards Building Type
  BlendB;                                 !- Standards Space Type

OS:Rendering:Color,
  {c8795181-bc88-434f-a25a-53eaedd7c1e1}, !- Handle
  Rendering Color 2,                      !- Name
  120,                                    !- Rendering Red Value
  149,                                    !- Rendering Green Value
  230;                                    !- Rendering Blue Value

OS:SpaceType,
  {0b315751-7e60-468b-826f-ccbd84c2af5c}, !- Handle
  Office|BlendC|DOE Ref 1980-2004|ASHRAE 169-2006-5A, !- Name
  {50938c40-85b5-48c3-9920-e64284b9dcd5}, !- Default Construction Set Name
  ,                                       !- Default Schedule Set Name
  {36dd792d-3615-4179-91fa-1bad49cf65e9}, !- Group Rendering Name
  {c0728033-99eb-4f02-aad4-2d3df7817f00}, !- Design Specification Outdoor Air Object Name
  Office,                                 !- Standards Building Type
  BlendC;                                 !- Standards Space Type

OS:Rendering:Color,
  {36dd792d-3615-4179-91fa-1bad49cf65e9}, !- Handle
  Rendering Color 3,                      !- Name
  41,                                     !- Rendering Red Value
  31,                                     !- Rendering Green Value
  169;                                    !- Rendering Blue Value

OS:SpaceType,
  {c359f19e-015c-49a8-ab67-fb17e1283693}, !- Handle
  Office|Restroom|DOE Ref 1980-2004|ASHRAE 169-2006-5A, !- Name
  {50938c40-85b5-48c3-9920-e64284b9dcd5}, !- Default Construction Set Name
  {2ecc0b2e-3fc8-4b69-9b47-4c1ef92bbbb9}, !- Default Schedule Set Name
  {5e13a300-4586-4919-8d4f-d76c04c0b3a1}, !- Group Rendering Name
  {7faf21a4-8dcc-41fe-85fd-068d6cc23cb4}, !- Design Specification Outdoor Air Object Name
  Office,                                 !- Standards Building Type
  Restroom;                               !- Standards Space Type

OS:Rendering:Color,
  {5e13a300-4586-4919-8d4f-d76c04c0b3a1}, !- Handle
  Rendering Color 4,                      !- Name
  169,                                    !- Rendering Red Value
  169,                                    !- Rendering Green Value
  31;                                     !- Rendering Blue Value

OS:Schedule:Ruleset,
  {c1e98c05-5cf1-4f51-8e90-4acb34688aa2}, !- Handle
  0800|1700|Office|default|hoo,           !- Name
  {2fd648f3-e672-44b1-8cfc-52f0af068cca}, !- Schedule Type Limits Name
  {09647c50-0b17-4291-8d57-7bf814058a06}, !- Default Day Schedule Name
  {9e1ad474-bc91-486b-97ef-30e818d62c7f}, !- Summer Design Day Schedule Name
  {9ecddffa-c2f7-4579-b34d-4e83b14aa248}; !- Winter Design Day Schedule Name

OS:Schedule:Day,
  {09647c50-0b17-4291-8d57-7bf814058a06}, !- Handle
  0800|1700|Office|default|hoo Schedule Week Day, !- Name
  {2fd648f3-e672-44b1-8cfc-52f0af068cca}, !- Schedule Type Limits Name
  ,                                       !- Interpolate to Timestep
  8,                                      !- Hour 1
  0,                                      !- Minute 1
  0,                                      !- Value Until Time 1
  17,                                     !- Hour 2
  0,                                      !- Minute 2
  1,                                      !- Value Until Time 2
  24,                                     !- Hour 3
  0,                                      !- Minute 3
  0;                                      !- Value Until Time 3

OS:Schedule:Day,
  {9ab7abe6-826a-4488-9ea9-8916888ce9df}, !- Handle
  Schedule Day 2,                         !- Name
  ,                                       !- Schedule Type Limits Name
  ,                                       !- Interpolate to Timestep
  24,                                     !- Hour 1
  0,                                      !- Minute 1
  0;                                      !- Value Until Time 1

OS:Schedule:Day,
  {9ecddffa-c2f7-4579-b34d-4e83b14aa248}, !- Handle
  0800|1700|Office|default|hoo Winter Design Day, !- Name
  {2fd648f3-e672-44b1-8cfc-52f0af068cca}, !- Schedule Type Limits Name
  ,                                       !- Interpolate to Timestep
  24,                                     !- Hour 1
  0,                                      !- Minute 1
  0;                                      !- Value Until Time 1

OS:Schedule:Day,
  {956db7a3-1eb8-4978-ba6c-5f2d48fafc9f}, !- Handle
  Schedule Day 3,                         !- Name
  ,                                       !- Schedule Type Limits Name
  ,                                       !- Interpolate to Timestep
  24,                                     !- Hour 1
  0,                                      !- Minute 1
  0;                                      !- Value Until Time 1

OS:Schedule:Day,
  {9e1ad474-bc91-486b-97ef-30e818d62c7f}, !- Handle
  0800|1700|Office|default|hoo Summer Design Day, !- Name
  {2fd648f3-e672-44b1-8cfc-52f0af068cca}, !- Schedule Type Limits Name
  ,                                       !- Interpolate to Timestep
  24,                                     !- Hour 1
  0,                                      !- Minute 1
  1;                                      !- Value Until Time 1

OS:DefaultScheduleSet,
  {69b85a1e-4b3c-4ff5-ac00-09307e0ca011}, !- Handle
  Building Hours of Operation,            !- Name
  {c1e98c05-5cf1-4f51-8e90-4acb34688aa2}, !- Hours of Operation Schedule Name
  ,                                       !- Number of People Schedule Name
  ,                                       !- People Activity Level Schedule Name
  ,                                       !- Lighting Schedule Name
  ,                                       !- Electric Equipment Schedule Name
  ,                                       !- Gas Equipment Schedule Name
  ,                                       !- Hot Water Equipment Schedule Name
  ,                                       !- Infiltration Schedule Name
  ,                                       !- Steam Equipment Schedule Name
  ;                                       !- Other Equipment Schedule Name

OS:ScheduleTypeLimits,
  {2fd648f3-e672-44b1-8cfc-52f0af068cca}, !- Handle
  OnOff,                                  !- Name
  0,                                      !- Lower Limit Value {BasedOnField A4}
  1,                                      !- Upper Limit Value {BasedOnField A4}
  Discrete,                               !- Numeric Type
  Availability;                           !- Unit Type

OS:Schedule:Ruleset,
  {cc6ea07b-35b5-4131-abf1-ded82503151b}, !- Handle
  0800|1700|Office|OpenOffice|occ,        !- Name
  {ae89e22e-1997-4cb4-b419-0c2ab5e32d96}, !- Schedule Type Limits Name
  {8e361411-cb03-4f79-ba92-bf3d491ce75a}, !- Default Day Schedule Name
  {080a8178-f243-4281-b240-7826cb51181c}, !- Summer Design Day Schedule Name
  {120df786-01c6-4709-87e7-2470f826a0d7}; !- Winter Design Day Schedule Name

OS:ScheduleTypeLimits,
  {ae89e22e-1997-4cb4-b419-0c2ab5e32d96}, !- Handle
  Occupancy Schedule Type Limits,         !- Name
  0,                                      !- Lower Limit Value {BasedOnField A4}
  1,                                      !- Upper Limit Value {BasedOnField A4}
  Continuous,                             !- Numeric Type
  Dimensionless;                          !- Unit Type

OS:Schedule:Day,
  {8e361411-cb03-4f79-ba92-bf3d491ce75a}, !- Handle
  0800|1700|Office|OpenOffice|occ |default, !- Name
  {ae89e22e-1997-4cb4-b419-0c2ab5e32d96}, !- Schedule Type Limits Name
  ,                                       !- Interpolate to Timestep
  5,                                      !- Hour 1
  0,                                      !- Minute 1
  0,                                      !- Value Until Time 1
  5,                                      !- Hour 2
  30,                                     !- Minute 2
  0.05,                                   !- Value Until Time 2
  6,                                      !- Hour 3
  0,                                      !- Minute 3
  0.1,                                    !- Value Until Time 3
  6,                                      !- Hour 4
  30,                                     !- Minute 4
  0.15,                                   !- Value Until Time 4
  7,                                      !- Hour 5
  0,                                      !- Minute 5
  0.2,                                    !- Value Until Time 5
  7,                                      !- Hour 6
  30,                                     !- Minute 6
  0.25,                                   !- Value Until Time 6
  8,                                      !- Hour 7
  0,                                      !- Minute 7
  0.3,                                    !- Value Until Time 7
  12,                                     !- Hour 8
  0,                                      !- Minute 8
  0.85,                                   !- Value Until Time 8
  13,                                     !- Hour 9
  0,                                      !- Minute 9
  0.51,                                   !- Value Until Time 9
  17,                                     !- Hour 10
  0,                                      !- Minute 10
  0.85,                                   !- Value Until Time 10
  17,                                     !- Hour 11
  30,                                     !- Minute 11
  0.76,                                   !- Value Until Time 11
  18,                                     !- Hour 12
  0,                                      !- Minute 12
  0.68,                                   !- Value Until Time 12
  18,                                     !- Hour 13
  30,                                     !- Minute 13
  0.6,                                    !- Value Until Time 13
  19,                                     !- Hour 14
  0,                                      !- Minute 14
  0.51,                                   !- Value Until Time 14
  19,                                     !- Hour 15
  30,                                     !- Minute 15
  0.43,                                   !- Value Until Time 15
  20,                                     !- Hour 16
  0,                                      !- Minute 16
  0.34,                                   !- Value Until Time 16
  20,                                     !- Hour 17
  30,                                     !- Minute 17
  0.26,                                   !- Value Until Time 17
  21,                                     !- Hour 18
  0,                                      !- Minute 18
  0.17,                                   !- Value Until Time 18
  21,                                     !- Hour 19
  30,                                     !- Minute 19
  0.09,                                   !- Value Until Time 19
  24,                                     !- Hour 20
  0,                                      !- Minute 20
  0;                                      !- Value Until Time 20

OS:Schedule:Day,
  {080a8178-f243-4281-b240-7826cb51181c}, !- Handle
  0800|1700|Office|OpenOffice|occ Summer Design Day, !- Name
  {ae89e22e-1997-4cb4-b419-0c2ab5e32d96}, !- Schedule Type Limits Name
  ,                                       !- Interpolate to Timestep
  5,                                      !- Hour 1
  0,                                      !- Minute 1
  0,                                      !- Value Until Time 1
  5,                                      !- Hour 2
  30,                                     !- Minute 2
  0.05,                                   !- Value Until Time 2
  6,                                      !- Hour 3
  0,                                      !- Minute 3
  0.1,                                    !- Value Until Time 3
  6,                                      !- Hour 4
  30,                                     !- Minute 4
  0.15,                                   !- Value Until Time 4
  7,                                      !- Hour 5
  0,                                      !- Minute 5
  0.2,                                    !- Value Until Time 5
  7,                                      !- Hour 6
  30,                                     !- Minute 6
  0.25,                                   !- Value Until Time 6
  20,                                     !- Hour 7
  0,                                      !- Minute 7
  1,                                      !- Value Until Time 7
  20,                                     !- Hour 8
  30,                                     !- Minute 8
  0.26,                                   !- Value Until Time 8
  21,                                     !- Hour 9
  0,                                      !- Minute 9
  0.17,                                   !- Value Until Time 9
  21,                                     !- Hour 10
  30,                                     !- Minute 10
  0.09,                                   !- Value Until Time 10
  24,                                     !- Hour 11
  0,                                      !- Minute 11
  0;                                      !- Value Until Time 11

OS:Schedule:Day,
  {120df786-01c6-4709-87e7-2470f826a0d7}, !- Handle
  0800|1700|Office|OpenOffice|occ Winter Design Day, !- Name
  {ae89e22e-1997-4cb4-b419-0c2ab5e32d96}, !- Schedule Type Limits Name
  ,                                       !- Interpolate to Timestep
  24,                                     !- Hour 1
  0,                                      !- Minute 1
  0;                                      !- Value Until Time 1

OS:Schedule:Rule,
  {389b7e7d-46b3-45de-9471-6bd6ee1df783}, !- Handle
  0800|1700|Office|OpenOffice|occ |1/1-12/31|Sun Rule, !- Name
  {cc6ea07b-35b5-4131-abf1-ded82503151b}, !- Schedule Ruleset Name
  0,                                      !- Rule Order
  {031f00eb-1622-46a5-aa46-f9d1cbfe65d7}, !- Day Schedule Name
  Yes,                                    !- Apply Sunday
  ,                                       !- Apply Monday
  ,                                       !- Apply Tuesday
  ,                                       !- Apply Wednesday
  ,                                       !- Apply Thursday
  ,                                       !- Apply Friday
  ,                                       !- Apply Saturday
  ,                                       !- Apply Holiday
  DateRange,                              !- Date Specification Type
  1,                                      !- Start Month
  1,                                      !- Start Day
  12,                                     !- End Month
  31;                                     !- End Day

OS:Schedule:Day,
  {031f00eb-1622-46a5-aa46-f9d1cbfe65d7}, !- Handle
  0800|1700|Office|OpenOffice|occ |1/1-12/31|Sun, !- Name
  {ae89e22e-1997-4cb4-b419-0c2ab5e32d96}, !- Schedule Type Limits Name
  ,                                       !- Interpolate to Timestep
  24,                                     !- Hour 1
  0,                                      !- Minute 1
  0;                                      !- Value Until Time 1

OS:Schedule:Rule,
  {243f9377-e588-4f2c-85d5-5080606610c6}, !- Handle
  0800|1700|Office|OpenOffice|occ |1/1-12/31|Sat Rule, !- Name
  {cc6ea07b-35b5-4131-abf1-ded82503151b}, !- Schedule Ruleset Name
  1,                                      !- Rule Order
  {fef42392-3579-416b-85c3-abf822e2e1b0}, !- Day Schedule Name
  ,                                       !- Apply Sunday
  ,                                       !- Apply Monday
  ,                                       !- Apply Tuesday
  ,                                       !- Apply Wednesday
  ,                                       !- Apply Thursday
  ,                                       !- Apply Friday
  Yes,                                    !- Apply Saturday
  ,                                       !- Apply Holiday
  DateRange,                              !- Date Specification Type
  1,                                      !- Start Month
  1,                                      !- Start Day
  12,                                     !- End Month
  31;                                     !- End Day

OS:Schedule:Day,
  {fef42392-3579-416b-85c3-abf822e2e1b0}, !- Handle
  0800|1700|Office|OpenOffice|occ |1/1-12/31|Sat, !- Name
  {ae89e22e-1997-4cb4-b419-0c2ab5e32d96}, !- Schedule Type Limits Name
  ,                                       !- Interpolate to Timestep
  5,                                      !- Hour 1
  0,                                      !- Minute 1
  0,                                      !- Value Until Time 1
  5,                                      !- Hour 2
  30,                                     !- Minute 2
  0.03,                                   !- Value Until Time 2
  6,                                      !- Hour 3
  0,                                      !- Minute 3
  0.07,                                   !- Value Until Time 3
  6,                                      !- Hour 4
  30,                                     !- Minute 4
  0.1,                                    !- Value Until Time 4
  7,                                      !- Hour 5
  0,                                      !- Minute 5
  0.13,                                   !- Value Until Time 5
  7,                                      !- Hour 6
  30,                                     !- Minute 6
  0.17,                                   !- Value Until Time 6
  8,                                      !- Hour 7
  0,                                      !- Minute 7
  0.2,                                    !- Value Until Time 7
  14,                                     !- Hour 8
  0,                                      !- Minute 8
  0.4,                                    !- Value Until Time 8
  14,                                     !- Hour 9
  30,                                     !- Minute 9
  0.18,                                   !- Value Until Time 9
  15,                                     !- Hour 10
  0,                                      !- Minute 10
  0.15,                                   !- Value Until Time 10
  15,                                     !- Hour 11
  30,                                     !- Minute 11
  0.13,                                   !- Value Until Time 11
  16,                                     !- Hour 12
  0,                                      !- Minute 12
  0.1,                                    !- Value Until Time 12
  16,                                     !- Hour 13
  30,                                     !- Minute 13
  0.08,                                   !- Value Until Time 13
  17,                                     !- Hour 14
  0,                                      !- Minute 14
  0.05,                                   !- Value Until Time 14
  17,                                     !- Hour 15
  30,                                     !- Minute 15
  0.03,                                   !- Value Until Time 15
  24,                                     !- Hour 16
  0,                                      !- Minute 16
  0;                                      !- Value Until Time 16

OS:Schedule:Ruleset,
  {5689ddc8-f21c-4ba2-b75d-c67a09de414b}, !- Handle
  0800|1700|Office|default|elec_equip,    !- Name
  {28ff9cea-c4b7-4452-9fef-f37c64f35408}, !- Schedule Type Limits Name
  {f12bba46-0707-48f8-810b-76a364149453}, !- Default Day Schedule Name
  {7283ffa9-1f74-4896-a918-441cb84e988a}, !- Summer Design Day Schedule Name
  {1f22ca12-ddb5-4b2c-a601-ab713c2f082d}; !- Winter Design Day Schedule Name

OS:ScheduleTypeLimits,
  {28ff9cea-c4b7-4452-9fef-f37c64f35408}, !- Handle
  Equipment Schedule Type Limits,         !- Name
  0,                                      !- Lower Limit Value {BasedOnField A4}
  1,                                      !- Upper Limit Value {BasedOnField A4}
  Continuous,                             !- Numeric Type
  Dimensionless;                          !- Unit Type

OS:Schedule:Day,
  {f12bba46-0707-48f8-810b-76a364149453}, !- Handle
  0800|1700|Office|default|elec_equip |default, !- Name
  {28ff9cea-c4b7-4452-9fef-f37c64f35408}, !- Schedule Type Limits Name
  ,                                       !- Interpolate to Timestep
  8,                                      !- Hour 1
  0,                                      !- Minute 1
  0.4,                                    !- Value Until Time 1
  12,                                     !- Hour 2
  0,                                      !- Minute 2
  0.9,                                    !- Value Until Time 2
  13,                                     !- Hour 3
  0,                                      !- Minute 3
  0.8,                                    !- Value Until Time 3
  16,                                     !- Hour 4
  0,                                      !- Minute 4
  0.9,                                    !- Value Until Time 4
  16,                                     !- Hour 5
  30,                                     !- Minute 5
  0.8,                                    !- Value Until Time 5
  17,                                     !- Hour 6
  0,                                      !- Minute 6
  0.7,                                    !- Value Until Time 6
  17,                                     !- Hour 7