
OS:Version,
  {34e0ec82-628e-454a-8383-1280cdea225b}, !- Handle
  1.5.5;                                  !- Version Identifier

OS:ClimateZones,
  {135edfab-17e7-40db-a436-27d385a8cd6d}, !- Handle
  ,                                       !- Active Institution
  ,                                       !- Active Year
  ASHRAE,                                 !- Climate Zone Institution Name 1
  ANSI/ASHRAE Standard 169,               !- Climate Zone Document Name 1
  2006,                                   !- Climate Zone Document Year 1
  ,                                       !- Climate Zone Value 1
  CEC,                                    !- Climate Zone Institution Name 2
  California Climate Zone Descriptions,   !- Climate Zone Document Name 2
  1995,                                   !- Climate Zone Document Year 2
  ;                                       !- Climate Zone Value 2

OS:YearDescription,
  {513d8dda-86cb-442a-b01c-1f7f0e0ac70e}; !- Handle

OS:RadianceParameters,
  {270a96f1-3c86-4b75-a667-cdf22790e2c8}, !- Handle
  1,                                      !- Accumulated Rays per Record
  0,                                      !- Direct Threshold
  1,                                      !- Direct Certainty
  1,                                      !- Direct Jitter
  1,                                      !- Direct Pretest
  6,                                      !- Ambient Bounces VMX
  2,                                      !- Ambient Bounces DMX
  4050,                                   !- Ambient Divisions VMX
  512,                                    !- Ambient Divisions DMX
  256,                                    !- Ambient Supersamples
  0.001,                                  !- Limit Weight VMX
  0.001,                                  !- Limit Weight DMX
  500,                                    !- Klems Sampling Density
  146;                                    !- Sky Discretization Resolution

OS:SimulationControl,
  {2c487a4c-bac9-4ac5-b669-1e49d9da7c2b}, !- Handle
  ,                                       !- Do Zone Sizing Calculation
  ,                                       !- Do System Sizing Calculation
  ,                                       !- Do Plant Sizing Calculation
  No,                                     !- Run Simulation for Sizing Periods
  ,                                       !- Run Simulation for Weather File Run Periods
  0.04,                                   !- Loads Convergence Tolerance Value
  ,                                       !- Temperature Convergence Tolerance Value {deltaC}
  ,                                       !- Solar Distribution
  ,                                       !- Maximum Number of Warmup Days
  2;                                      !- Minimum Number of Warmup Days

OS:Sizing:Parameters,
  {dde5af6f-7923-4600-a28a-7556673a0266}, !- Handle
  1.25,                                   !- Heating Sizing Factor
  1.15;                                   !- Cooling Sizing Factor

OS:ProgramControl,
  {05027a99-f2b3-4aeb-afc6-1425fbb4371d}; !- Handle

OS:Timestep,
  {4ebc9f1e-4707-402e-9844-67eb1ffbd522}, !- Handle
  2;                                      !- Number of Timesteps per Hour

OS:OutputControl:ReportingTolerances,
  {65797aa2-06a9-45fe-b69d-bc6e060399d3}; !- Handle

OS:ConvergenceLimits,
  {9fc11aba-8822-4f3d-970c-46391ba4040d}; !- Handle

OS:ShadowCalculation,
  {ca758bea-4416-4626-9bba-3d8795c79bd6}, !- Handle
  7,                                      !- Calculation Frequency
  15000;                                  !- Maximum Figures in Shadow Overlap Calculations

OS:SurfaceConvectionAlgorithm:Inside,
  {aaabfc36-718a-4ab0-b622-f186ebb45230}, !- Handle
  TARP;                                   !- Algorithm

OS:SurfaceConvectionAlgorithm:Outside,
  {9a0a9f6f-4bbd-4b12-a121-9492a1fcd7d6}, !- Handle
  DOE-2;                                  !- Algorithm

OS:HeatBalanceAlgorithm,
  {9d93e563-e1e0-46d7-9e39-d1c8aceb7212}, !- Handle
  ConductionTransferFunction,             !- Algorithm
  200;                                    !- Surface Temperature Upper Limit {F}

OS:ZoneAirHeatBalanceAlgorithm,
  {8520d93e-310f-4696-9bcd-36228bfdd743}, !- Handle
  AnalyticalSolution;                     !- Algorithm

OS:ZoneAirContaminantBalance,
  {eb5fc3ae-fb22-4160-8fcb-3e3b22b000d3}; !- Handle

OS:ZoneCapacitanceMultiplier:ResearchSpecial,
  {4020ce4f-5a7a-4849-8028-8305d7b751b1}, !- Handle
  ,                                       !- Temperature Capacity Multiplier
  ,                                       !- Humidity Capacity Multiplier
  ;                                       !- Carbon Dioxide Capacity Multiplier

OS:RunPeriod,
  {28df894d-6af9-4fb8-8f56-df1753344aa3}, !- Handle
  Run Period 1,                           !- Name
  1,                                      !- Begin Month
  1,                                      !- Begin Day of Month
  12,                                     !- End Month
  31,                                     !- End Day of Month
  ,                                       !- Use Weather File Holidays and Special Days
  ,                                       !- Use Weather File Daylight Saving Period
  ,                                       !- Apply Weekend Holiday Rule
  ,                                       !- Use Weather File Rain Indicators
  ,                                       !- Use Weather File Snow Indicators
  ;                                       !- Number of Times Runperiod to be Repeated

OS:Building,
  {bf305633-c5a1-4881-9edf-ca5e1a8e1274}, !- Handle
  Building 1,                             !- Name
  ,                                       !- Building Sector Type
  ,                                       !- North Axis {deg}
  ,                                       !- Nominal Floor to Floor Height {m}
  ,                                       !- Space Type Name
  ,                                       !- Default Construction Set Name
  {f61a8f98-4abf-448f-abbb-f7cb242d0e96}, !- Default Schedule Set Name
  ,                                       !- Standards Number of Stories
  ,                                       !- Standards Number of Above Ground Stories
  Office;                                 !- Standards Building Type

OS:LifeCycleCost:Parameters,
  {231cf8a0-f0e7-4251-a99f-11f0d464e661}, !- Handle
  FEMP,                                   !- Analysis Type
  ,                                       !- Discounting Convention
  ,                                       !- Inflation Approach
  ,                                       !- Real Discount Rate
  ,                                       !- Nominal Discount Rate
  ,                                       !- Inflation
  ,                                       !- Base Date Month
  ,                                       !- Base Date Year
  ,                                       !- Service Date Month
  ,                                       !- Service Date Year
  ,                                       !- Length of Study Period in Years
  ,                                       !- Tax Rate
  ,                                       !- Depreciation Method
  Yes;                                    !- Use NIST Fuel Escalation Rates

OS:Facility,
  {3ba8e45b-b833-44eb-a723-ea6c3946dc96}; !- Handle

OS:SpaceType,
  {1ebf6f2a-1e73-426b-93e2-3ab638020e39}, !- Handle
  Office|BlendA|DOE Ref 2004|ASHRAE 169-2006-5A, !- Name
  {ab6d665f-d397-4509-ab7a-a469462f46b1}, !- Default Construction Set Name
  ,                                       !- Default Schedule Set Name
  {f8cf7d8f-e039-4573-a4e6-a83bc20098a2}, !- Group Rendering Name
  {3a6cdb47-f1dd-4b70-81d6-9c22c24b546c}, !- Design Specification Outdoor Air Object Name
  Office,                                 !- Standards Building Type
  BlendA;                                 !- Standards Space Type

OS:Rendering:Color,
  {f8cf7d8f-e039-4573-a4e6-a83bc20098a2}, !- Handle
  Rendering Color 1,                      !- Name
  120,                                    !- Rendering Red Value
  230,                                    !- Rendering Green Value
  199;                                    !- Rendering Blue Value

OS:SpaceType,
  {c595ea8f-c447-4b9d-b4b3-c634106f6fa9}, !- Handle
  Office|BlendB|DOE Ref 2004|ASHRAE 169-2006-5A, !- Name
  {ab6d665f-d397-4509-ab7a-a469462f46b1}, !- Default Construction Set Name
  ,                                       !- Default Schedule Set Name
  {5de1b3d1-bbc5-48e7-ae56-09b66452c38d}, !- Group Rendering Name
  {c9ad2f1a-0f24-46d0-8aee-fd92468dde9f}, !- Design Specification Outdoor Air Object Name
  Office,                                 !- Standards Building Type
  BlendB;                                 !- Standards Space Type

OS:Rendering:Color,
  {5de1b3d1-bbc5-48e7-ae56-09b66452c38d}, !- Handle
  Rendering Color 2,                      !- Name
  120,                                    !- Rendering Red Value
  149,                                    !- Rendering Green Value
  230;                                    !- Rendering Blue Value

OS:SpaceType,
  {b580a774-e4ab-4d24-a857-f5beeca6bcc0}, !- Handle
  Office|IT_Room|DOE Ref 2004|ASHRAE 169-2006-5A, !- Name
  {ab6d665f-d397-4509-ab7a-a469462f46b1}, !- Default Construction Set Name
  {3df69419-7bb4-4dd2-8856-c96078a45de1}, !- Default Schedule Set Name
  {8eeb106c-c653-4f26-95b8-2b5db4619c71}, !- Group Rendering Name
  {aba9c648-d6d6-4b94-9fce-b486781ae6f5}, !- Design Specification Outdoor Air Object Name
  Office,                                 !- Standards Building Type
  IT_Room;                                !- Standards Space Type

OS:Rendering:Color,
  {8eeb106c-c653-4f26-95b8-2b5db4619c71}, !- Handle
  Rendering Color 3,                      !- Name
  41,                                     !- Rendering Red Value
  31,                                     !- Rendering Green Value
  169;                                    !- Rendering Blue Value

OS:SpaceType,
  {ad8ee039-67aa-497a-9973-2c18ba08ee35}, !- Handle
  Office|Elec/MechRoom|DOE Ref 2004|ASHRAE 169-2006-5A, !- Name
  {ab6d665f-d397-4509-ab7a-a469462f46b1}, !- Default Construction Set Name
  {555e251e-b20d-4986-86d4-94c06f4ce0cf}, !- Default Schedule Set Name
  {6c11973d-eb8f-4269-afc0-07012c8523b2}, !- Group Rendering Name
  {63f6dde6-3b03-4df6-804a-9a63313bedba}, !- Design Specification Outdoor Air Object Name
  Office,                                 !- Standards Building Type
  Elec/MechRoom;                          !- Standards Space Type

OS:Rendering:Color,
  {6c11973d-eb8f-4269-afc0-07012c8523b2}, !- Handle
  Rendering Color 4,                      !- Name
  41,                                     !- Rendering Red Value
  31,                                     !- Rendering Green Value
  169;                                    !- Rendering Blue Value

OS:SpaceType,
  {4b1fde6a-9180-4f5b-9c7c-43682198fb51}, !- Handle
  Office|PrintRoom|DOE Ref 2004|ASHRAE 169-2006-5A, !- Name
  {ab6d665f-d397-4509-ab7a-a469462f46b1}, !- Default Construction Set Name
  {b24651f3-4af5-40f9-af2d-10f1e7db08ce}, !- Default Schedule Set Name
  {b58ea950-7361-4e06-933b-96e1456a2518}, !- Group Rendering Name
  {1e4a47c6-6bf7-413f-9782-f2f6e17007c4}, !- Design Specification Outdoor Air Object Name
  Office,                                 !- Standards Building Type
  PrintRoom;                              !- Standards Space Type

OS:Rendering:Color,
  {b58ea950-7361-4e06-933b-96e1456a2518}, !- Handle
  Rendering Color 5,                      !- Name
  41,                                     !- Rendering Red Value
  31,                                     !- Rendering Green Value
  169;                                    !- Rendering Blue Value

OS:SpaceType,
  {3e73e67c-cd5e-452c-a939-83dfe3b793b7}, !- Handle
  Office|Restroom|DOE Ref 2004|ASHRAE 169-2006-5A, !- Name
  {ab6d665f-d397-4509-ab7a-a469462f46b1}, !- Default Construction Set Name
  {417eed1d-0b9a-4dc9-8844-4ce0f606a41c}, !- Default Schedule Set Name
  {ada6e4d1-93ab-453b-aea9-9f15b5c463b1}, !- Group Rendering Name
  {e03df409-1183-4222-857e-77052270c5e5}, !- Design Specification Outdoor Air Object Name
  Office,                                 !- Standards Building Type
  Restroom;                               !- Standards Space Type

OS:Rendering:Color,
  {ada6e4d1-93ab-453b-aea9-9f15b5c463b1}, !- Handle
  Rendering Color 6,                      !- Name
  169,                                    !- Rendering Red Value
  169,                                    !- Rendering Green Value
  31;                                     !- Rendering Blue Value

OS:Schedule:Ruleset,
  {7573b384-5dfd-45ae-ad54-3f7c01b929f8}, !- Handle
  0800|1700|Office|default|hoo,           !- Name
  {486d12ed-f613-4263-92f4-624c488acdac}, !- Schedule Type Limits Name
  {74d652b5-3514-4d20-bf9e-923e9f07145f}, !- Default Day Schedule Name
  {b023a899-a36c-45fa-890d-c44c144a4af0}, !- Summer Design Day Schedule Name
  {f231234d-c12f-4aee-b730-ef862ad084a5}; !- Winter Design Day Schedule Name

OS:Schedule:Day,
  {74d652b5-3514-4d20-bf9e-923e9f07145f}, !- Handle
  0800|1700|Office|default|hoo Schedule Week Day, !- Name
  {486d12ed-f613-4263-92f4-624c488acdac}, !- Schedule Type Limits Name
  ,                                       !- Interpolate to Timestep
  8,                                      !- Hour 1
  0,                                      !- Minute 1
  0,                                      !- Value Until Time 1
  17,                                     !- Hour 2
  0,                                      !- Minute 2
  1,                                      !- Value Until Time 2
  24,                                     !- Hour 3
  0,                                      !- Minute 3
  0;                                      !- Value Until Time 3

OS:Schedule:Day,
  {24b67b8d-a3b4-493d-ac76-51b39a33c953}, !- Handle
  Schedule Day 2,                         !- Name
  ,                                       !- Schedule Type Limits Name
  ,                                       !- Interpolate to Timestep
  24,                                     !- Hour 1
  0,                                      !- Minute 1
  0;                                      !- Value Until Time 1

OS:Schedule:Day,
  {f231234d-c12f-4aee-b730-ef862ad084a5}, !- Handle
  0800|1700|Office|default|hoo Winter Design Day, !- Name
  {486d12ed-f613-4263-92f4-624c488acdac}, !- Schedule Type Limits Name
  ,                                       !- Interpolate to Timestep
  24,                                     !- Hour 1
  0,                                      !- Minute 1
  0;                                      !- Value Until Time 1

OS:Schedule:Day,
  {925c1a15-5d95-4db9-a3cd-3f47e97aa262}, !- Handle
  Schedule Day 3,                         !- Name
  ,                                       !- Schedule Type Limits Name
  ,                                       !- Interpolate to Timestep
  24,                                     !- Hour 1
  0,                                      !- Minute 1
  0;                                      !- Value Until Time 1

OS:Schedule:Day,
  {b023a899-a36c-45fa-890d-c44c144a4af0}, !- Handle
  0800|1700|Office|default|hoo Summer Design Day, !- Name
  {486d12ed-f613-4263-92f4-624c488acdac}, !- Schedule Type Limits Name
  ,                                       !- Interpolate to Timestep
  24,                                     !- Hour 1
  0,                                      !- Minute 1
  1;                                      !- Value Until Time 1

OS:DefaultScheduleSet,
  {f61a8f98-4abf-448f-abbb-f7cb242d0e96}, !- Handle
  Building Hours of Operation,            !- Name
  {7573b384-5dfd-45ae-ad54-3f7c01b929f8}, !- Hours of Operation Schedule Name
  ,                                       !- Number of People Schedule Name
  ,                                       !- People Activity Level Schedule Name
  ,                                       !- Lighting Schedule Name
  ,                                       !- Electric Equipment Schedule Name
  ,                                       !- Gas Equipment Schedule Name
  ,                                       !- Hot Water Equipment Schedule Name
  ,                                       !- Infiltration Schedule Name
  ,                                       !- Steam Equipment Schedule Name
  ;                                       !- Other Equipment Schedule Name

OS:ScheduleTypeLimits,
  {486d12ed-f613-4263-92f4-624c488acdac}, !- Handle
  OnOff,                                  !- Name
  0,                                      !- Lower Limit Value {BasedOnField A4}
  1,                                      !- Upper Limit Value {BasedOnField A4}
  Discrete,                               !- Numeric Type
  Availability;                           !- Unit Type

OS:Schedule:Ruleset,
  {6c01ca1a-a115-481f-9277-8ab662fc1372}, !- Handle
  0800|1700|Office|OpenOffice|occ,        !- Name
  {8d2908ed-2e73-4036-b6cd-be62dc2c0e14}, !- Schedule Type Limits Name
  {224531e4-bc4f-4295-89ad-014e61f7a6bf}, !- Default Day Schedule Name
  {e4fceffd-ea74-48b7-aefb-999c0242455b}, !- Summer Design Day Schedule Name
  {aaa11574-5439-4719-9673-bf8317e0d33f}; !- Winter Design Day Schedule Name

OS:ScheduleTypeLimits,
  {8d2908ed-2e73-4036-b6cd-be62dc2c0e14}, !- Handle
  Occupancy Schedule Type Limits,         !- Name
  0,                                      !- Lower Limit Value {BasedOnField A4}
  1,                                      !- Upper Limit Value {BasedOnField A4}
  Continuous,                             !- Numeric Type
  Dimensionless;                          !- Unit Type

OS:Schedule:Day,
  {224531e4-bc4f-4295-89ad-014e61f7a6bf}, !- Handle
  0800|1700|Office|OpenOffice|occ |default, !- Name
  {8d2908ed-2e73-4036-b6cd-be62dc2c0e14}, !- Schedule Type Limits Name
  ,                                       !- Interpolate to Timestep
  5,                                      !- Hour 1
  0,                                      !- Minute 1
  0,                                      !- Value Until Time 1
  5,                                      !- Hour 2
  30,                                     !- Minute 2
  0.05,                                   !- Value Until Time 2
  6,                                      !- Hour 3
  0,                                      !- Minute 3
  0.1,                                    !- Value Until Time 3
  6,                                      !- Hour 4
  30,                                     !- Minute 4
  0.15,                                   !- Value Until Time 4
  7,                                      !- Hour 5
  0,                                      !- Minute 5
  0.2,                                    !- Value Until Time 5
  7,                                      !- Hour 6
  30,                                     !- Minute 6
  0.25,                                   !- Value Until Time 6
  8,                                      !- Hour 7
  0,                                      !- Minute 7
  0.3,                                    !- Value Until Time 7
  12,                                     !- Hour 8
  0,                                      !- Minute 8
  0.85,                                   !- Value Until Time 8
  13,                                     !- Hour 9
  0,                                      !- Minute 9
  0.51,                                   !- Value Until Time 9
  17,                                     !- Hour 10
  0,                                      !- Minute 10
  0.85,                                   !- Value Until Time 10
  17,                                     !- Hour 11
  30,                                     !- Minute 11
  0.76,                                   !- Value Until Time 11
  18,                                     !- Hour 12
  0,                                      !- Minute 12
  0.68,                                   !- Value Until Time 12
  18,                                     !- Hour 13
  30,                                     !- Minute 13
  0.6,                                    !- Value Until Time 13
  19,                                     !- Hour 14
  0,                                      !- Minute 14
  0.51,                                   !- Value Until Time 14
  19,                                     !- Hour 15
  30,                                     !- Minute 15
  0.43,                                   !- Value Until Time 15
  20,                                     !- Hour 16
  0,                                      !- Minute 16
  0.34,                                   !- Value Until Time 16
  20,                                     !- Hour 17
  30,                                     !- Minute 17
  0.26,                                   !- Value Until Time 17
  21,                                     !- Hour 18
  0,                                      !- Minute 18
  0.17,                                   !- Value Until Time 18
  21,                                     !- Hour 19
  30,                                     !- Minute 19
  0.09,                                   !- Value Until Time 19
  24,                                     !- Hour 20
  0,                                      !- Minute 20
  0;                                      !- Value Until Time 20

OS:Schedule:Day,
  {e4fceffd-ea74-48b7-aefb-999c0242455b}, !- Handle
  0800|1700|Office|OpenOffice|occ Summer Design Day, !- Name
  {8d2908ed-2e73-4036-b6cd-be62dc2c0e14}, !- Schedule Type Limits Name
  ,                                       !- Interpolate to Timestep
  5,                                      !- Hour 1
  0,                                      !- Minute 1
  0,                                      !- Value Until Time 1
  5,                                      !- Hour 2
  30,                                     !- Minute 2
  0.05,                                   !- Value Until Time 2
  6,                                      !- Hour 3
  0,                                      !- Minute 3
  0.1,                                    !- Value Until Time 3
  6,                                      !- Hour 4
  30,                                     !- Minute 4
  0.15,                                   !- Value Until Time 4
  7,                                      !- Hour 5
  0,                                      !- Minute 5
  0.2,                                    !- Value Until Time 5
  7,                                      !- Hour 6
  30,                                     !- Minute 6
  0.25,                                   !- Value Until Time 6
  20,                                     !- Hour 7
  0,                                      !- Minute 7
  1,                                      !- Value Until Time 7
  20,                                     !- Hour 8
  30,                                     !- Minute 8
  0.26,                                   !- Value Until Time 8
  21,                                     !- Hour 9
  0,                                      !- Minute 9
  0.17,                                   !- Value Until Time 9
  21,                                     !- Hour 10
  30,                                     !- Minute 10
  0.09,                                   !- Value Until Time 10
  24,                                     !- Hour 11
  0,                                      !- Minute 11
  0;                                      !- Value Until Time 11

OS:Schedule:Day,
  {aaa11574-5439-4719-9673-bf8317e0d33f}, !- Handle
  0800|1700|Office|OpenOffice|occ Winter Design Day, !- Name
  {8d2908ed-2e73-4036-b6cd-be62dc2c0e14}, !- Schedule Type Limits Name
  ,                                       !- Interpolate to Timestep
  24,                                     !- Hour 1
  0,                                      !- Minute 1
  0;                                      !- Value Until Time 1

OS:Schedule:Rule,
  {ec24d0a8-d28a-4e9f-8848-5260285f7dba}, !- Handle
  0800|1700|Office|OpenOffice|occ |1/1-12/31|Sun Rule, !- Name
  {6c01ca1a-a115-481f-9277-8ab662fc1372}, !- Schedule Ruleset Name
  0,                                      !- Rule Order
  {4d978c9c-5eaf-478d-b7f0-8ee5f21d4976}, !- Day Schedule Name
  Yes,                                    !- Apply Sunday
  ,                                       !- Apply Monday
  ,                                       !- Apply Tuesday
  ,                                       !- Apply Wednesday
  ,                                       !- Apply Thursday
  ,                                       !- Apply Friday
  ,                                       !- Apply Saturday
  ,                                       !- Apply Holiday
  DateRange,                              !- Date Specification Type
  1,                                      !- Start Month
  1,                                      !- Start Day
  12,                                     !- End Month
  31;                                     !- End Day

OS:Schedule:Day,
  {4d978c9c-5eaf-478d-b7f0-8ee5f21d4976}, !- Handle
  0800|1700|Office|OpenOffice|occ |1/1-12/31|Sun, !- Name
  {8d2908ed-2e73-4036-b6cd-be62dc2c0e14}, !- Schedule Type Limits Name
  ,                                       !- Interpolate to Timestep
  24,                                     !- Hour 1
  0,                                      !- Minute 1
  0;                                      !- Value Until Time 1

OS:Schedule:Rule,
  {3c550c07-d5e8-4dfb-8fb2-7fbc0961b7e0}, !- Handle
  0800|1700|Office|OpenOffice|occ |1/1-12/31|Sat Rule, !- Name
  {6c01ca1a-a115-481f-9277-8ab662fc1372}, !- Schedule Ruleset Name
  1,                                      !- Rule Order
  {215134e7-35f2-452f-a48a-27d779263c88}, !- Day Schedule Name
  ,                                       !- Apply Sunday
  ,                                       !- Apply Monday
  ,                                       !- Apply Tuesday
  ,                                       !- Apply Wednesday
  ,                                       !- Apply Thursday
  ,                                       !- Apply Friday
  Yes,                                    !- Apply Saturday
  ,                                       !- Apply Holiday
  DateRange,                              !- Date Specification Type
  1,                                      !- Start Month
  1,                                      !- Start Day
  12,                                     !- End Month
  31;                                     !- End Day

OS:Schedule:Day,
  {215134e7-35f2-452f-a48a-27d779263c88}, !- Handle
  0800|1700|Office|OpenOffice|occ |1/1-12/31|Sat, !- Name
  {8d2908ed-2e73-4036-b6cd-be62dc2c0e14}, !- Schedule Type Limits Name
  ,                                       !- Interpolate to Timestep
  5,                                      !- Hour 1
  0,                                      !- Minute 1
  0,                                      !- Value Until Time 1
  5,                                      !- Hour 2
  30,                                     !- Minute 2
  0.03,                                   !- Value Until Time 2
  6,                                      !- Hour 3
  0,                                      !- Minute 3
  0.07,                                   !- Value Until Time 3
  6,                                      !- Hour 4
  30,                                     !- Minute 4
  0.1,                                    !- Value Until Time 4
  7,                                      !- Hour 5
  0,                                      !- Minute 5
  0.13,                                   !- Value Until Time 5
  7,                                      !- Hour 6
  30,                                     !- Minute 6
  0.17,                                   !- Value Until Time 6
  8,                                      !- Hour 7
  0,                                      !- Minute 7
  0.2,                                    !- Value Until Time 7
  14,                                     !- Hour 8
  0,                                      !- Minute 8
  0.4,                                    !- Value Until Time 8
  14,                                     !- Hour 9
  30,                                     !- Minute 9
  0.18,                                   !- Value Until Time 9
  15,                                     !- Hour 10
  0,                                      !- Minute 10
  0.15,                                   !- Value Until Time 10
  15,                                     !- Hour 11
  30,                                     !- Minute 11
  0.13,                                   !- Value Until Time 11
  16,                                     !- Hour 12
  0,                                      !- Minute 12
  0.1,                                    !- Value Until Time 12
  16,                                     !- Hour 13
  30,                                     !- Minute 13
  0.08,                                   !- Value Until Time 13
  17,                                     !- Hour 14
  0,                                      !- Minute 14
  0.05,                                   !- Value Until Time 14
  17,                                     !- Hour 15
  30,                                     !- Minute 15
  0.03,                                   !- Value Until Time 15
  24,                                     !- Hour 16
  0,                                      !- Minute 16
  0;                                      !- Value Until Time 16

OS:Schedule:Ruleset,
  {9e4d7e61-232f-4239-b3e3-dc86b6e7ea01}, !- Handle
  0800|1700|Office|default|elec_equip,    !- Name
  {f09f4124-a180-4cc4-be34-64ba0b1b8dc8}, !- Schedule Type Limits Name
  {05e7f297-eb24-4930-9e55-19ce09933b31}, !- Default Day Schedule Name
  {cdd1952b-9bec-4df7-918c-cd5d8f08567a}, !- Summer Design Day Schedule Name
  {a1455ac4-b03f-44db-a0ef-6e625f888a75}; !- Winter Design Day Schedule Name
