
OS:Version,
  {f4e11fca-4246-4b73-8a02-441cb9ca2a1f}, !- Handle
  1.5.5;                                  !- Version Identifier

OS:ClimateZones,
  {135edfab-17e7-40db-a436-27d385a8cd6d}, !- Handle
  ,                                       !- Active Institution
  ,                                       !- Active Year
  ASHRAE,                                 !- Climate Zone Institution Name 1
  ANSI/ASHRAE Standard 169,               !- Climate Zone Document Name 1
  2006,                                   !- Climate Zone Document Year 1
  ,                                       !- Climate Zone Value 1
  CEC,                                    !- Climate Zone Institution Name 2
  California Climate Zone Descriptions,   !- Climate Zone Document Name 2
  1995,                                   !- Climate Zone Document Year 2
  ;                                       !- Climate Zone Value 2

OS:YearDescription,
  {513d8dda-86cb-442a-b01c-1f7f0e0ac70e}; !- Handle

OS:RadianceParameters,
  {270a96f1-3c86-4b75-a667-cdf22790e2c8}, !- Handle
  1,                                      !- Accumulated Rays per Record
  0,                                      !- Direct Threshold
  1,                                      !- Direct Certainty
  1,                                      !- Direct Jitter
  1,                                      !- Direct Pretest
  6,                                      !- Ambient Bounces VMX
  2,                                      !- Ambient Bounces DMX
  4050,                                   !- Ambient Divisions VMX
  512,                                    !- Ambient Divisions DMX
  256,                                    !- Ambient Supersamples
  0.001,                                  !- Limit Weight VMX
  0.001,                                  !- Limit Weight DMX
  500,                                    !- Klems Sampling Density
  146;                                    !- Sky Discretization Resolution

OS:SimulationControl,
  {2c487a4c-bac9-4ac5-b669-1e49d9da7c2b}, !- Handle
  ,                                       !- Do Zone Sizing Calculation
  ,                                       !- Do System Sizing Calculation
  ,                                       !- Do Plant Sizing Calculation
  No,                                     !- Run Simulation for Sizing Periods
  ,                                       !- Run Simulation for Weather File Run Periods
  0.04,                                   !- Loads Convergence Tolerance Value
  ,                                       !- Temperature Convergence Tolerance Value {deltaC}
  ,                                       !- Solar Distribution
  ,                                       !- Maximum Number of Warmup Days
  2;                                      !- Minimum Number of Warmup Days

OS:Sizing:Parameters,
  {dde5af6f-7923-4600-a28a-7556673a0266}, !- Handle
  1.25,                                   !- Heating Sizing Factor
  1.15;                                   !- Cooling Sizing Factor

OS:ProgramControl,
  {05027a99-f2b3-4aeb-afc6-1425fbb4371d}; !- Handle

OS:Timestep,
  {4ebc9f1e-4707-402e-9844-67eb1ffbd522}, !- Handle
  2;                                      !- Number of Timesteps per Hour

OS:OutputControl:ReportingTolerances,
  {65797aa2-06a9-45fe-b69d-bc6e060399d3}; !- Handle

OS:ConvergenceLimits,
  {9fc11aba-8822-4f3d-970c-46391ba4040d}; !- Handle

OS:ShadowCalculation,
  {ca758bea-4416-4626-9bba-3d8795c79bd6}, !- Handle
  7,                                      !- Calculation Frequency
  15000;                                  !- Maximum Figures in Shadow Overlap Calculations

OS:SurfaceConvectionAlgorithm:Inside,
  {aaabfc36-718a-4ab0-b622-f186ebb45230}, !- Handle
  TARP;                                   !- Algorithm

OS:SurfaceConvectionAlgorithm:Outside,
  {9a0a9f6f-4bbd-4b12-a121-9492a1fcd7d6}, !- Handle
  DOE-2;                                  !- Algorithm

OS:HeatBalanceAlgorithm,
  {9d93e563-e1e0-46d7-9e39-d1c8aceb7212}, !- Handle
  ConductionTransferFunction,             !- Algorithm
  200;                                    !- Surface Temperature Upper Limit {F}

OS:ZoneAirHeatBalanceAlgorithm,
  {8520d93e-310f-4696-9bcd-36228bfdd743}, !- Handle
  AnalyticalSolution;                     !- Algorithm

OS:ZoneAirContaminantBalance,
  {eb5fc3ae-fb22-4160-8fcb-3e3b22b000d3}; !- Handle

OS:ZoneCapacitanceMultiplier:ResearchSpecial,
  {4020ce4f-5a7a-4849-8028-8305d7b751b1}, !- Handle
  ,                                       !- Temperature Capacity Multiplier
  ,                                       !- Humidity Capacity Multiplier
  ;                                       !- Carbon Dioxide Capacity Multiplier

OS:RunPeriod,
  {28df894d-6af9-4fb8-8f56-df1753344aa3}, !- Handle
  Run Period 1,                           !- Name
  1,                                      !- Begin Month
  1,                                      !- Begin Day of Month
  12,                                     !- End Month
  31,                                     !- End Day of Month
  ,                                       !- Use Weather File Holidays and Special Days
  ,                                       !- Use Weather File Daylight Saving Period
  ,                                       !- Apply Weekend Holiday Rule
  ,                                       !- Use Weather File Rain Indicators
  ,                                       !- Use Weather File Snow Indicators
  ;                                       !- Number of Times Runperiod to be Repeated

OS:Building,
  {bf305633-c5a1-4881-9edf-ca5e1a8e1274}, !- Handle
  Building 1,                             !- Name
  ,                                       !- Building Sector Type
  ,                                       !- North Axis {deg}
  ,                                       !- Nominal Floor to Floor Height {m}
  ,                                       !- Space Type Name
  ,                                       !- Default Construction Set Name
  {55f09b93-683a-4073-a982-5aa22d43df3b}, !- Default Schedule Set Name
  ,                                       !- Standards Number of Stories
  ,                                       !- Standards Number of Above Ground Stories
  Office;                                 !- Standards Building Type

OS:LifeCycleCost:Parameters,
  {231cf8a0-f0e7-4251-a99f-11f0d464e661}, !- Handle
  FEMP,                                   !- Analysis Type
  ,                                       !- Discounting Convention
  ,                                       !- Inflation Approach
  ,                                       !- Real Discount Rate
  ,                                       !- Nominal Discount Rate
  ,                                       !- Inflation
  ,                                       !- Base Date Month
  ,                                       !- Base Date Year
  ,                                       !- Service Date Month
  ,                                       !- Service Date Year
  ,                                       !- Length of Study Period in Years
  ,                                       !- Tax Rate
  ,                                       !- Depreciation Method
  Yes;                                    !- Use NIST Fuel Escalation Rates

OS:Facility,
  {3ba8e45b-b833-44eb-a723-ea6c3946dc96}; !- Handle

OS:SpaceType,
  {19e9683f-c8e9-4614-ad67-64ccab707c71}, !- Handle
  Office|BlendA|DOE Ref 1980-2004|ASHRAE 169-2006-5A, !- Name
  {6c18c017-91e4-4e36-a4e1-3cbc9021a690}, !- Default Construction Set Name
  ,                                       !- Default Schedule Set Name
  {313e7e21-f91d-476a-892e-477e89916cf4}, !- Group Rendering Name
  {58e385d0-238d-4ea1-b1d2-726de6ff0bc9}, !- Design Specification Outdoor Air Object Name
  Office,                                 !- Standards Building Type
  BlendA;                                 !- Standards Space Type

OS:Rendering:Color,
  {313e7e21-f91d-476a-892e-477e89916cf4}, !- Handle
  Rendering Color 1,                      !- Name
  120,                                    !- Rendering Red Value
  230,                                    !- Rendering Green Value
  199;                                    !- Rendering Blue Value

OS:SpaceType,
  {03be5814-5575-4eb0-9a9e-ca835887ef7f}, !- Handle
  Office|BlendB|DOE Ref 1980-2004|ASHRAE 169-2006-5A, !- Name
  {6c18c017-91e4-4e36-a4e1-3cbc9021a690}, !- Default Construction Set Name
  ,                                       !- Default Schedule Set Name
  {97677430-db2f-46b0-a4cf-386c6836c119}, !- Group Rendering Name
  {5074c43b-5723-4287-bfe2-f11cd5eb7d72}, !- Design Specification Outdoor Air Object Name
  Office,                                 !- Standards Building Type
  BlendB;                                 !- Standards Space Type

OS:Rendering:Color,
  {97677430-db2f-46b0-a4cf-386c6836c119}, !- Handle
  Rendering Color 2,                      !- Name
  120,                                    !- Rendering Red Value
  149,                                    !- Rendering Green Value
  230;                                    !- Rendering Blue Value

OS:SpaceType,
  {4da21965-f98b-4d2a-b422-5aa9eaf83887}, !- Handle
  Office|IT_Room|DOE Ref 1980-2004|ASHRAE 169-2006-5A, !- Name
  {6c18c017-91e4-4e36-a4e1-3cbc9021a690}, !- Default Construction Set Name
  {01ff9494-66bc-458c-a746-03f5e0342aa3}, !- Default Schedule Set Name
  {59d975ff-cd8f-40f1-b236-baad1a7829df}, !- Group Rendering Name
  {ac6034c1-d838-4fb6-b550-4f937329ca0b}, !- Design Specification Outdoor Air Object Name
  Office,                                 !- Standards Building Type
  IT_Room;                                !- Standards Space Type

OS:Rendering:Color,
  {59d975ff-cd8f-40f1-b236-baad1a7829df}, !- Handle
  Rendering Color 3,                      !- Name
  41,                                     !- Rendering Red Value
  31,                                     !- Rendering Green Value
  169;                                    !- Rendering Blue Value

OS:SpaceType,
  {e6b4927b-5597-49d3-a515-08d876713f21}, !- Handle
  Office|Elec/MechRoom|DOE Ref 1980-2004|ASHRAE 169-2006-5A, !- Name
  {6c18c017-91e4-4e36-a4e1-3cbc9021a690}, !- Default Construction Set Name
  {78371184-450a-46bb-a9e9-40478b93792a}, !- Default Schedule Set Name
  {afd71255-f702-4ec4-91d9-03994dacae6f}, !- Group Rendering Name
  {0799b45c-469c-4a80-8f46-f1718d92a6f8}, !- Design Specification Outdoor Air Object Name
  Office,                                 !- Standards Building Type
  Elec/MechRoom;                          !- Standards Space Type

OS:Rendering:Color,
  {afd71255-f702-4ec4-91d9-03994dacae6f}, !- Handle
  Rendering Color 4,                      !- Name
  41,                                     !- Rendering Red Value
  31,                                     !- Rendering Green Value
  169;                                    !- Rendering Blue Value

OS:SpaceType,
  {7e01a28a-bc3f-47f9-981a-f1d8cde92721}, !- Handle
  Office|PrintRoom|DOE Ref 1980-2004|ASHRAE 169-2006-5A, !- Name
  {6c18c017-91e4-4e36-a4e1-3cbc9021a690}, !- Default Construction Set Name
  {7b6b9292-8354-4701-bf33-49d4e268e6d9}, !- Default Schedule Set Name
  {72e04ac9-4be0-4a5a-b23d-8b9eeae223b5}, !- Group Rendering Name
  {c32a64fd-5c05-4ede-9f45-c16923f12072}, !- Design Specification Outdoor Air Object Name
  Office,                                 !- Standards Building Type
  PrintRoom;                              !- Standards Space Type

OS:Rendering:Color,
  {72e04ac9-4be0-4a5a-b23d-8b9eeae223b5}, !- Handle
  Rendering Color 5,                      !- Name
  41,                                     !- Rendering Red Value
  31,                                     !- Rendering Green Value
  169;                                    !- Rendering Blue Value

OS:SpaceType,
  {f85a11e9-5c62-430c-ac27-6153bee213cf}, !- Handle
  Office|Restroom|DOE Ref 1980-2004|ASHRAE 169-2006-5A, !- Name
  {6c18c017-91e4-4e36-a4e1-3cbc9021a690}, !- Default Construction Set Name
  {9b087a79-0a0c-4f93-8631-1963ea1319f2}, !- Default Schedule Set Name
  {45f7cca0-9a6c-4c05-b8f5-996d7cf012ed}, !- Group Rendering Name
  {4f0006dd-820a-4065-ba63-ce312d721786}, !- Design Specification Outdoor Air Object Name
  Office,                                 !- Standards Building Type
  Restroom;                               !- Standards Space Type

OS:Rendering:Color,
  {45f7cca0-9a6c-4c05-b8f5-996d7cf012ed}, !- Handle
  Rendering Color 6,                      !- Name
  169,                                    !- Rendering Red Value
  169,                                    !- Rendering Green Value
  31;                                     !- Rendering Blue Value

OS:Schedule:Ruleset,
  {fa1ddc60-a358-4fc3-99c1-6ccde71c669a}, !- Handle
  0800|1700|Office|default|hoo,           !- Name
  {c049cb3c-6cab-406d-a3b1-44aa6c604c5c}, !- Schedule Type Limits Name
  {b11e8c7a-2d45-4bd4-8296-e2ee00044241}, !- Default Day Schedule Name
  {1ebf7d04-d48b-4443-a897-126357030b87}, !- Summer Design Day Schedule Name
  {d5da350f-4971-4a11-ba83-294efbdc3bf6}; !- Winter Design Day Schedule Name

OS:Schedule:Day,
  {b11e8c7a-2d45-4bd4-8296-e2ee00044241}, !- Handle
  0800|1700|Office|default|hoo Schedule Week Day, !- Name
  {c049cb3c-6cab-406d-a3b1-44aa6c604c5c}, !- Schedule Type Limits Name
  ,                                       !- Interpolate to Timestep
  8,                                      !- Hour 1
  0,                                      !- Minute 1
  0,                                      !- Value Until Time 1
  17,                                     !- Hour 2
  0,                                      !- Minute 2
  1,                                      !- Value Until Time 2
  24,                                     !- Hour 3
  0,                                      !- Minute 3
  0;                                      !- Value Until Time 3

OS:Schedule:Day,
  {a5ad9032-c1aa-464b-9613-a41493614a79}, !- Handle
  Schedule Day 2,                         !- Name
  ,                                       !- Schedule Type Limits Name
  ,                                       !- Interpolate to Timestep
  24,                                     !- Hour 1
  0,                                      !- Minute 1
  0;                                      !- Value Until Time 1

OS:Schedule:Day,
  {d5da350f-4971-4a11-ba83-294efbdc3bf6}, !- Handle
  0800|1700|Office|default|hoo Winter Design Day, !- Name
  {c049cb3c-6cab-406d-a3b1-44aa6c604c5c}, !- Schedule Type Limits Name
  ,                                       !- Interpolate to Timestep
  24,                                     !- Hour 1
  0,                                      !- Minute 1
  0;                                      !- Value Until Time 1

OS:Schedule:Day,
  {75930c81-ab8b-4384-9240-099f74bf8813}, !- Handle
  Schedule Day 3,                         !- Name
  ,                                       !- Schedule Type Limits Name
  ,                                       !- Interpolate to Timestep
  24,                                     !- Hour 1
  0,                                      !- Minute 1
  0;                                      !- Value Until Time 1

OS:Schedule:Day,
  {1ebf7d04-d48b-4443-a897-126357030b87}, !- Handle
  0800|1700|Office|default|hoo Summer Design Day, !- Name
  {c049cb3c-6cab-406d-a3b1-44aa6c604c5c}, !- Schedule Type Limits Name
  ,                                       !- Interpolate to Timestep
  24,                                     !- Hour 1
  0,                                      !- Minute 1
  1;                                      !- Value Until Time 1

OS:DefaultScheduleSet,
  {55f09b93-683a-4073-a982-5aa22d43df3b}, !- Handle
  Building Hours of Operation,            !- Name
  {fa1ddc60-a358-4fc3-99c1-6ccde71c669a}, !- Hours of Operation Schedule Name
  ,                                       !- Number of People Schedule Name
  ,                                       !- People Activity Level Schedule Name
  ,                                       !- Lighting Schedule Name
  ,                                       !- Electric Equipment Schedule Name
  ,                                       !- Gas Equipment Schedule Name
  ,                                       !- Hot Water Equipment Schedule Name
  ,                                       !- Infiltration Schedule Name
  ,                                       !- Steam Equipment Schedule Name
  ;                                       !- Other Equipment Schedule Name

OS:ScheduleTypeLimits,
  {c049cb3c-6cab-406d-a3b1-44aa6c604c5c}, !- Handle
  OnOff,                                  !- Name
  0,                                      !- Lower Limit Value {BasedOnField A4}
  1,                                      !- Upper Limit Value {BasedOnField A4}
  Discrete,                               !- Numeric Type
  Availability;                           !- Unit Type

OS:Schedule:Ruleset,
  {2ab870b7-fcc6-4a0a-b1e3-334d61ad4eb1}, !- Handle
  0800|1700|Office|OpenOffice|occ,        !- Name
  {d99fb1df-de9c-4a6c-a1a3-1c47bbc4b371}, !- Schedule Type Limits Name
  {0d1647ed-87c1-4a90-bd34-df8a259066ef}, !- Default Day Schedule Name
  {f84fcbe8-beee-462f-9b27-edca758e7f17}, !- Summer Design Day Schedule Name
  {c35407ad-0ae1-448a-9214-856a140f6624}; !- Winter Design Day Schedule Name

OS:ScheduleTypeLimits,
  {d99fb1df-de9c-4a6c-a1a3-1c47bbc4b371}, !- Handle
  Occupancy Schedule Type Limits,         !- Name
  0,                                      !- Lower Limit Value {BasedOnField A4}
  1,                                      !- Upper Limit Value {BasedOnField A4}
  Continuous,                             !- Numeric Type
  Dimensionless;                          !- Unit Type

OS:Schedule:Day,
  {0d1647ed-87c1-4a90-bd34-df8a259066ef}, !- Handle
  0800|1700|Office|OpenOffice|occ |default, !- Name
  {d99fb1df-de9c-4a6c-a1a3-1c47bbc4b371}, !- Schedule Type Limits Name
  ,                                       !- Interpolate to Timestep
  5,                                      !- Hour 1
  0,                                      !- Minute 1
  0,                                      !- Value Until Time 1
  5,                                      !- Hour 2
  30,                                     !- Minute 2
  0.05,                                   !- Value Until Time 2
  6,                                      !- Hour 3
  0,                                      !- Minute 3
  0.1,                                    !- Value Until Time 3
  6,                                      !- Hour 4
  30,                                     !- Minute 4
  0.15,                                   !- Value Until Time 4
  7,                                      !- Hour 5
  0,                                      !- Minute 5
  0.2,                                    !- Value Until Time 5
  7,                                      !- Hour 6
  30,                                     !- Minute 6
  0.25,                                   !- Value Until Time 6
  8,                                      !- Hour 7
  0,                                      !- Minute 7
  0.3,                                    !- Value Until Time 7
  12,                                     !- Hour 8
  0,                                      !- Minute 8
  0.85,                                   !- Value Until Time 8
  13,                                     !- Hour 9
  0,                                      !- Minute 9
  0.51,                                   !- Value Until Time 9
  17,                                     !- Hour 10
  0,                                      !- Minute 10
  0.85,                                   !- Value Until Time 10
  17,                                     !- Hour 11
  30,                                     !- Minute 11
  0.76,                                   !- Value Until Time 11
  18,                                     !- Hour 12
  0,                                      !- Minute 12
  0.68,                                   !- Value Until Time 12
  18,                                     !- Hour 13
  30,                                     !- Minute 13
  0.6,                                    !- Value Until Time 13
  19,                                     !- Hour 14
  0,                                      !- Minute 14
  0.51,                                   !- Value Until Time 14
  19,                                     !- Hour 15
  30,                                     !- Minute 15
  0.43,                                   !- Value Until Time 15
  20,                                     !- Hour 16
  0,                                      !- Minute 16
  0.34,                                   !- Value Until Time 16
  20,                                     !- Hour 17
  30,                                     !- Minute 17
  0.26,                                   !- Value Until Time 17
  21,                                     !- Hour 18
  0,                                      !- Minute 18
  0.17,                                   !- Value Until Time 18
  21,                                     !- Hour 19
  30,                                     !- Minute 19
  0.09,                                   !- Value Until Time 19
  24,                                     !- Hour 20
  0,                                      !- Minute 20
  0;                                      !- Value Until Time 20

OS:Schedule:Day,
  {f84fcbe8-beee-462f-9b27-edca758e7f17}, !- Handle
  0800|1700|Office|OpenOffice|occ Summer Design Day, !- Name
  {d99fb1df-de9c-4a6c-a1a3-1c47bbc4b371}, !- Schedule Type Limits Name
  ,                                       !- Interpolate to Timestep
  5,                                      !- Hour 1
  0,                                      !- Minute 1
  0,                                      !- Value Until Time 1
  5,                                      !- Hour 2
  30,                                     !- Minute 2
  0.05,                                   !- Value Until Time 2
  6,                                      !- Hour 3
  0,                                      !- Minute 3
  0.1,                                    !- Value Until Time 3
  6,                                      !- Hour 4
  30,                                     !- Minute 4
  0.15,                                   !- Value Until Time 4
  7,                                      !- Hour 5
  0,                                      !- Minute 5
  0.2,                                    !- Value Until Time 5
  7,                                      !- Hour 6
  30,                                     !- Minute 6
  0.25,                                   !- Value Until Time 6
  20,                                     !- Hour 7
  0,                                      !- Minute 7
  1,                                      !- Value Until Time 7
  20,                                     !- Hour 8
  30,                                     !- Minute 8
  0.26,                                   !- Value Until Time 8
  21,                                     !- Hour 9
  0,                                      !- Minute 9
  0.17,                                   !- Value Until Time 9
  21,                                     !- Hour 10
  30,                                     !- Minute 10
  0.09,                                   !- Value Until Time 10
  24,                                     !- Hour 11
  0,                                      !- Minute 11
  0;                                      !- Value Until Time 11

OS:Schedule:Day,
  {c35407ad-0ae1-448a-9214-856a140f6624}, !- Handle
  0800|1700|Office|OpenOffice|occ Winter Design Day, !- Name
  {d99fb1df-de9c-4a6c-a1a3-1c47bbc4b371}, !- Schedule Type Limits Name
  ,                                       !- Interpolate to Timestep
  24,                                     !- Hour 1
  0,                                      !- Minute 1
  0;                                      !- Value Until Time 1

OS:Schedule:Rule,
  {d296b365-b6d0-4b6c-9cec-81276fa0b60c}, !- Handle
  0800|1700|Office|OpenOffice|occ |1/1-12/31|Sun Rule, !- Name
  {2ab870b7-fcc6-4a0a-b1e3-334d61ad4eb1}, !- Schedule Ruleset Name
  0,                                      !- Rule Order
  {123fab3c-5528-45d7-a68a-8d25ca44be1d}, !- Day Schedule Name
  Yes,                                    !- Apply Sunday
  ,                                       !- Apply Monday
  ,                                       !- Apply Tuesday
  ,                                       !- Apply Wednesday
  ,                                       !- Apply Thursday
  ,                                       !- Apply Friday
  ,                                       !- Apply Saturday
  ,                                       !- Apply Holiday
  DateRange,                              !- Date Specification Type
  1,                                      !- Start Month
  1,                                      !- Start Day
  12,                                     !- End Month
  31;                                     !- End Day

OS:Schedule:Day,
  {123fab3c-5528-45d7-a68a-8d25ca44be1d}, !- Handle
  0800|1700|Office|OpenOffice|occ |1/1-12/31|Sun, !- Name
  {d99fb1df-de9c-4a6c-a1a3-1c47bbc4b371}, !- Schedule Type Limits Name
  ,                                       !- Interpolate to Timestep
  24,                                     !- Hour 1
  0,                                      !- Minute 1
  0;                                      !- Value Until Time 1

OS:Schedule:Rule,
  {974ae836-8de4-4ca0-b05f-6a8acf35c782}, !- Handle
  0800|1700|Office|OpenOffice|occ |1/1-12/31|Sat Rule, !- Name
  {2ab870b7-fcc6-4a0a-b1e3-334d61ad4eb1}, !- Schedule Ruleset Name
  1,                                      !- Rule Order
  {7696f918-0997-4ec9-9e19-a03638cbc2f9}, !- Day Schedule Name
  ,                                       !- Apply Sunday
  ,                                       !- Apply Monday
  ,                                       !- Apply Tuesday
  ,                                       !- Apply Wednesday
  ,                                       !- Apply Thursday
  ,                                       !- Apply Friday
  Yes,                                    !- Apply Saturday
  ,                                       !- Apply Holiday
  DateRange,                              !- Date Specification Type
  1,                                      !- Start Month
  1,                                      !- Start Day
  12,                                     !- End Month
  31;                                     !- End Day

OS:Schedule:Day,
  {7696f918-0997-4ec9-9e19-a03638cbc2f9}, !- Handle
  0800|1700|Office|OpenOffice|occ |1/1-12/31|Sat, !- Name
  {d99fb1df-de9c-4a6c-a1a3-1c47bbc4b371}, !- Schedule Type Limits Name
  ,                                       !- Interpolate to Timestep
  5,                                      !- Hour 1
  0,                                      !- Minute 1
  0,                                      !- Value Until Time 1
  5,                                      !- Hour 2
  30,                                     !- Minute 2
  0.03,                                   !- Value Until Time 2
  6,                                      !- Hour 3
  0,                                      !- Minute 3
  0.07,                                   !- Value Until Time 3
  6,                                      !- Hour 4
  30,                                     !- Minute 4
  0.1,                                    !- Value Until Time 4
  7,                                      !- Hour 5
  0,                                      !- Minute 5
  0.13,                                   !- Value Until Time 5
  7,                                      !- Hour 6
  30,                                     !- Minute 6
  0.17,                                   !- Value Until Time 6
  8,                                      !- Hour 7
  0,                                      !- Minute 7
  0.2,                                    !- Value Until Time 7
  14,                                     !- Hour 8
  0,                                      !- Minute 8
  0.4,                                    !- Value Until Time 8
  14,                                     !- Hour 9
  30,                                     !- Minute 9
  0.18,                                   !- Value Until Time 9
  15,                                     !- Hour 10
  0,                                      !- Minute 10
  0.15,                                   !- Value Until Time 10
  15,                                     !- Hour 11
  30,                                     !- Minute 11
  0.13,                                   !- Value Until Time 11
  16,                                     !- Hour 12
  0,                                      !- Minute 12
  0.1,                                    !- Value Until Time 12
  16,                                     !- Hour 13
  30,                                     !- Minute 13
  0.08,                                   !- Value Until Time 13
  17,                                     !- Hour 14
  0,                                      !- Minute 14
  0.05,                                   !- Value Until Time 14
  17,                                     !- Hour 15
  30,                                     !- Minute 15
  0.03,                                   !- Value Until Time 15
  24,                                     !- Hour 16
  0,                                      !- Minute 16
  0;                                      !- Value Until Time 16

OS:Schedule:Ruleset,
  {e131fc71-0033-4e70-8203-acaa350c6e74}, !- Handle
  0800|1700|Office|default|elec_equip,    !- Name
  {38e35bbd-44fe-402a-b675-74f8924e1db4}, !- Schedule Type Limits Name
  {7833a48e-9870-4a7f-af81-b42012f8ad5d}, !- Default Day Schedule Name
  {0d6719a6-77f1-49c6-863f-338971da1d68}, !- Summer Design Day Schedule Name