
OS:Version,
  {a98b9f3d-2c2b-4a44-a584-715d7ee09560}, !- Handle
  1.13.0;                                 !- Version Identifier

OS:SimulationControl,
  {a07b1b0b-1193-41e3-ac7b-d722619aaa68}, !- Handle
  Yes,                                    !- Do Zone Sizing Calculation
  Yes,                                    !- Do System Sizing Calculation
  ,                                       !- Do Plant Sizing Calculation
  No,                                     !- Run Simulation for Sizing Periods
  Yes;                                    !- Run Simulation for Weather File Run Periods

OS:Timestep,
  {712733f4-986c-4564-99e3-85bfe3dcf72f}, !- Handle
  6;                                      !- Number of Timesteps per Hour

OS:RunPeriod,
  {59f7d3c3-436d-42f6-80a7-b390d45d639a}, !- Handle
  Run Period 1,                           !- Name
  1,                                      !- Begin Month
  1,                                      !- Begin Day of Month
  12,                                     !- End Month
  31,                                     !- End Day of Month
  No,                                     !- Use Weather File Holidays and Special Days
  No,                                     !- Use Weather File Daylight Saving Period
  No,                                     !- Apply Weekend Holiday Rule
  Yes,                                    !- Use Weather File Rain Indicators
  Yes,                                    !- Use Weather File Snow Indicators
  1;                                      !- Number of Times Runperiod to be Repeated

OS:SurfaceConvectionAlgorithm:Inside,
  {8dc36055-853a-428b-bf74-add1f7f61ed4}, !- Handle
  TARP;                                   !- Algorithm

OS:SurfaceConvectionAlgorithm:Outside,
  {52c66d3b-13d9-4d98-a565-3cef4475255c}, !- Handle
  DOE-2;                                  !- Algorithm

OS:HeatBalanceAlgorithm,
  {af489b46-aaf6-4ac3-929c-cf27c9d5006a}, !- Handle
  ConductionTransferFunction,             !- Algorithm
  200;                                    !- Surface Temperature Upper Limit {C}

OS:ZoneAirHeatBalanceAlgorithm,
  {b89d6493-9b7b-4bb2-960c-dacf832e6b68}, !- Handle
  ThirdOrderBackwardDifference;           !- Algorithm

OS:ConvergenceLimits,
  {014f50c3-8172-4b5c-9948-3dda797dc36f}, !- Handle
  1;                                      !- Minimum System Timestep {minutes}

OS:ShadowCalculation,
  {f4fae828-deac-4eee-a63f-547e7d5ab605}, !- Handle
  20,                                     !- Calculation Frequency
  15000;                                  !- Maximum Figures in Shadow Overlap Calculations

OS:Site,
  {0bc496f2-f3c4-4842-a099-e7f5bf1dd485}, !- Handle
  Denver Intl Ap,                         !- Name
  39.83,                                  !- Latitude {deg}
  -104.65,                                !- Longitude {deg}
  -7,                                     !- Time Zone {hr}
  1650,                                   !- Elevation {m}
  ;                                       !- Terrain

OS:Site:GroundTemperature:BuildingSurface,
  {9c25ff3a-948a-49f1-8457-d27eebb1b3f0}, !- Handle
  19.527,                                 !- January Ground Temperature {C}
  19.502,                                 !- February Ground Temperature {C}
  19.536,                                 !- March Ground Temperature {C}
  19.598,                                 !- April Ground Temperature {C}
  20.002,                                 !- May Ground Temperature {C}
  21.64,                                  !- June Ground Temperature {C}
  22.225,                                 !- July Ground Temperature {C}
  22.375,                                 !- August Ground Temperature {C}
  21.449,                                 !- September Ground Temperature {C}
  20.121,                                 !- October Ground Temperature {C}
  19.802,                                 !- November Ground Temperature {C}
  19.633;                                 !- December Ground Temperature {C}

OS:Site:GroundTemperature:Deep,
  {4e46b491-15c0-4aa1-b547-e642b0873ad8}, !- Handle
  19.527,                                 !- January Deep Ground Temperature {C}
  19.502,                                 !- February Deep Ground Temperature {C}
  19.536,                                 !- March Deep Ground Temperature {C}
  19.598,                                 !- April Deep Ground Temperature {C}
  20.002,                                 !- May Deep Ground Temperature {C}
  21.64,                                  !- June Deep Ground Temperature {C}
  22.225,                                 !- July Deep Ground Temperature {C}
  22.375,                                 !- August Deep Ground Temperature {C}
  21.449,                                 !- September Deep Ground Temperature {C}
  20.121,                                 !- October Deep Ground Temperature {C}
  19.802,                                 !- November Deep Ground Temperature {C}
  19.633;                                 !- December Deep Ground Temperature {C}

OS:Site:WaterMainsTemperature,
  {1ab226b3-d9d3-4776-8b9d-a4e8b49804be}, !- Handle
  Correlation,                            !- Calculation Method
  ,                                       !- Temperature Schedule Name
  9.69,                                   !- Annual Average Outdoor Air Temperature {C}
  28.1;                                   !- Maximum Difference In Monthly Average Outdoor Air Temperatures {deltaC}

OS:SizingPeriod:DesignDay,
  {c4913fd8-cbda-41aa-9548-558acb994d9e}, !- Handle
  Sizing Period Design Day 1,             !- Name
  -20.6,                                  !- Maximum Dry-Bulb Temperature {C}
  0,                                      !- Daily Dry-Bulb Temperature Range {deltaC}
  -20.6,                                  !- Humidity Indicating Conditions at Maximum Dry-Bulb
  99063,                                  !- Barometric Pressure {Pa}
  4.9,                                    !- Wind Speed {m/s}
  270,                                    !- Wind Direction {deg}
  0,                                      !- Sky Clearness
  0,                                      !- Rain Indicator
  0,                                      !- Snow Indicator
  21,                                     !- Day of Month
  1,                                      !- Month
  WinterDesignDay,                        !- Day Type
  0,                                      !- Daylight Saving Time Indicator
  WetBulb,                                !- Humidity Indicating Type
  ,                                       !- Humidity Indicating Day Schedule Name
  DefaultMultipliers,                     !- Dry-Bulb Temperature Range Modifier Type
  ,                                       !- Dry-Bulb Temperature Range Modifier Schedule Name
  AshraeClearSky;                         !- Solar Model Indicator

OS:SizingPeriod:DesignDay,
  {ffb4ceb4-7315-4060-ba97-c9ac547089af}, !- Handle
  Sizing Period Design Day 2,             !- Name
  33.2,                                   !- Maximum Dry-Bulb Temperature {C}
  10.7,                                   !- Daily Dry-Bulb Temperature Range {deltaC}
  23.8,                                   !- Humidity Indicating Conditions at Maximum Dry-Bulb
  99063,                                  !- Barometric Pressure {Pa}
  5.3,                                    !- Wind Speed {m/s}
  230,                                    !- Wind Direction {deg}
  1,                                      !- Sky Clearness
  0,                                      !- Rain Indicator
  0,                                      !- Snow Indicator
  21,                                     !- Day of Month
  7,                                      !- Month
  SummerDesignDay,                        !- Day Type
  0,                                      !- Daylight Saving Time Indicator
  WetBulb,                                !- Humidity Indicating Type
  ,                                       !- Humidity Indicating Day Schedule Name
  DefaultMultipliers,                     !- Dry-Bulb Temperature Range Modifier Type
  ,                                       !- Dry-Bulb Temperature Range Modifier Schedule Name
  AshraeClearSky;                         !- Solar Model Indicator

OS:ScheduleTypeLimits,
  {9a2677d4-8a20-46e6-886d-1fa8119a0e07}, !- Handle
  Temperature,                            !- Name
  -60,                                    !- Lower Limit Value
  200,                                    !- Upper Limit Value
  CONTINUOUS,                             !- Numeric Type
  Temperature;                            !- Unit Type

OS:DefaultScheduleSet,
  {19f04bab-0558-48eb-a3f2-9433fd9f4273}, !- Handle
  Default Schedules,                      !- Name
  ,                                       !- Hours of Operation Schedule Name
  {fbbbbbbc-08bd-43d7-a29d-806f241526a8}, !- Number of People Schedule Name
  {e0727b98-e279-4dea-8894-7e95b19ff550}, !- People Activity Level Schedule Name
  {a3ef50c2-341b-44fd-ac0c-64ee89118d1e}, !- Lighting Schedule Name
  {57606cef-6e6b-4f42-a536-0d5ea5e84e9d}, !- Electric Equipment Schedule Name
  {2383e291-04f1-4718-9e74-7d2cc608f640}, !- Gas Equipment Schedule Name
  {1e12ae0b-161e-40f2-8911-03698b6c503a}, !- Hot Water Equipment Schedule Name
  {0abf631d-294f-4d89-92ab-0ff6907882e8}, !- Infiltration Schedule Name
  ,                                       !- Steam Equipment Schedule Name
  ;                                       !- Other Equipment Schedule Name

OS:Schedule:Ruleset,
  {fbbbbbbc-08bd-43d7-a29d-806f241526a8}, !- Handle
  Medium Office Number of People Schedule, !- Name
  {c0d0da31-5d78-42c8-9549-4c517aa85ffe}, !- Schedule Type Limits Name
  {0ec782a3-8cd6-4b3d-bcca-33a5dc18054e}, !- Default Day Schedule Name
  {de207e43-1e77-43b0-9881-3b9c10fb7ff0}; !- Summer Design Day Schedule Name

OS:Schedule:Day,
  {0ec782a3-8cd6-4b3d-bcca-33a5dc18054e}, !- Handle
  Medium Office Number of People All Other Days Schedule, !- Name
  {c0d0da31-5d78-42c8-9549-4c517aa85ffe}, !- Schedule Type Limits Name
  ,                                       !- Interpolate to Timestep
  24,                                     !- Hour 1
  0,                                      !- Minute 1
  0;                                      !- Value Until Time 1

OS:Schedule:Day,
  {405513dd-fcaa-4c0c-84c9-9e1df13bb577}, !- Handle
  Medium Office Number of People Summer Design Day Schedule, !- Name
  ,                                       !- Schedule Type Limits Name
  ,                                       !- Interpolate to Timestep
  6,                                      !- Hour 1
  0,                                      !- Minute 1
  0,                                      !- Value Until Time 1
  22,                                     !- Hour 2
  0,                                      !- Minute 2
  1,                                      !- Value Until Time 2
  24,                                     !- Hour 3
  0,                                      !- Minute 3
  0.05;                                   !- Value Until Time 3

OS:Schedule:Day,
  {de207e43-1e77-43b0-9881-3b9c10fb7ff0}, !- Handle
  Medium Office Number of People Summer Design Day Schedule 1, !- Name
  {c0d0da31-5d78-42c8-9549-4c517aa85ffe}, !- Schedule Type Limits Name
  ,                                       !- Interpolate to Timestep
  6,                                      !- Hour 1
  0,                                      !- Minute 1
  0,                                      !- Value Until Time 1
  22,                                     !- Hour 2
  0,                                      !- Minute 2
  1,                                      !- Value Until Time 2
  24,                                     !- Hour 3
  0,                                      !- Minute 3
  0.05;                                   !- Value Until Time 3

OS:Schedule:Rule,
  {b1a6beba-4038-47af-b739-76235f2adb09}, !- Handle
  Medium Office Number of People Schedule Weekdays Rule, !- Name
  {fbbbbbbc-08bd-43d7-a29d-806f241526a8}, !- Schedule Ruleset Name
  1,                                      !- Rule Order
  {369d6046-ee74-4016-a54b-dd99a7425617}, !- Day Schedule Name
  ,                                       !- Apply Sunday
  Yes,                                    !- Apply Monday
  Yes,                                    !- Apply Tuesday
  Yes,                                    !- Apply Wednesday
  Yes,                                    !- Apply Thursday
  Yes;                                    !- Apply Friday

OS:Schedule:Day,
  {369d6046-ee74-4016-a54b-dd99a7425617}, !- Handle
  Medium Office Number of People Weekdays Schedule, !- Name
  {c0d0da31-5d78-42c8-9549-4c517aa85ffe}, !- Schedule Type Limits Name
  ,                                       !- Interpolate to Timestep
  6,                                      !- Hour 1
  0,                                      !- Minute 1
  0,                                      !- Value Until Time 1
  7,                                      !- Hour 2
  0,                                      !- Minute 2
  0.1,                                    !- Value Until Time 2
  8,                                      !- Hour 3
  0,                                      !- Minute 3
  0.2,                                    !- Value Until Time 3
  12,                                     !- Hour 4
  0,                                      !- Minute 4
  0.95,                                   !- Value Until Time 4
  13,                                     !- Hour 5
  0,                                      !- Minute 5
  0.5,                                    !- Value Until Time 5
  17,                                     !- Hour 6
  0,                                      !- Minute 6
  0.95,                                   !- Value Until Time 6
  18,                                     !- Hour 7
  0,                                      !- Minute 7
  0.7,                                    !- Value Until Time 7
  20,                                     !- Hour 8
  0,                                      !- Minute 8
  0.4,                                    !- Value Until Time 8
  22,                                     !- Hour 9
  0,                                      !- Minute 9
  0.1,                                    !- Value Until Time 9
  24,                                     !- Hour 10
  0,                                      !- Minute 10
  0.05;                                   !- Value Until Time 10

OS:Schedule:Rule,
  {44d33b10-ef47-4ca6-870c-f10521fa4c32}, !- Handle
  Medium Office Number of People Schedule Saturday Rule, !- Name
  {fbbbbbbc-08bd-43d7-a29d-806f241526a8}, !- Schedule Ruleset Name
  0,                                      !- Rule Order
  {c19e86e2-4de9-483b-87b3-4dfc67cce132}, !- Day Schedule Name
  ,                                       !- Apply Sunday
  ,                                       !- Apply Monday
  ,                                       !- Apply Tuesday
  ,                                       !- Apply Wednesday
  ,                                       !- Apply Thursday
  ,                                       !- Apply Friday
  Yes;                                    !- Apply Saturday

OS:Schedule:Day,
  {c19e86e2-4de9-483b-87b3-4dfc67cce132}, !- Handle
  Medium Office Number of People Saturday Schedule, !- Name
  {c0d0da31-5d78-42c8-9549-4c517aa85ffe}, !- Schedule Type Limits Name
  ,                                       !- Interpolate to Timestep
  6,                                      !- Hour 1
  0,                                      !- Minute 1
  0,                                      !- Value Until Time 1
  8,                                      !- Hour 2
  0,                                      !- Minute 2
  0.1,                                    !- Value Until Time 2
  14,                                     !- Hour 3
  0,                                      !- Minute 3
  0.5,                                    !- Value Until Time 3
  17,                                     !- Hour 4
  0,                                      !- Minute 4
  0.1,                                    !- Value Until Time 4
  24,                                     !- Hour 5
  0,                                      !- Minute 5
  0;                                      !- Value Until Time 5

OS:ScheduleTypeLimits,
  {c0d0da31-5d78-42c8-9549-4c517aa85ffe}, !- Handle
  Fractional,                             !- Name
  0,                                      !- Lower Limit Value
  1,                                      !- Upper Limit Value
  Continuous;                             !- Numeric Type

OS:Schedule:Ruleset,
  {e0727b98-e279-4dea-8894-7e95b19ff550}, !- Handle
  Medium Office People Activity Level Schedule, !- Name
  {029b024f-b8e4-45ca-a6fe-96c7a130630c}, !- Schedule Type Limits Name
  {33ee5295-d354-45d1-a272-4f144e54e10f}; !- Default Day Schedule Name

OS:Schedule:Day,
  {33ee5295-d354-45d1-a272-4f144e54e10f}, !- Handle
  Medium Office People Activity Level All Days Schedule, !- Name
  {029b024f-b8e4-45ca-a6fe-96c7a130630c}, !- Schedule Type Limits Name
  ,                                       !- Interpolate to Timestep
  24,                                     !- Hour 1
  0,                                      !- Minute 1
  120;                                    !- Value Until Time 1

OS:ScheduleTypeLimits,
  {029b024f-b8e4-45ca-a6fe-96c7a130630c}, !- Handle
  ActivityLevel,                          !- Name
  0,                                      !- Lower Limit Value
  ,                                       !- Upper Limit Value
  Continuous,                             !- Numeric Type
  ActivityLevel;                          !- Unit Type

OS:Schedule:Ruleset,
  {a3ef50c2-341b-44fd-ac0c-64ee89118d1e}, !- Handle
  Medium Office Lighting Schedule,        !- Name
  {c0d0da31-5d78-42c8-9549-4c517aa85ffe}, !- Schedule Type Limits Name
  {7aeb3ea1-ee79-4024-b894-525698784c69}, !- Default Day Schedule Name
  {ac531073-5db4-429f-b4db-81ed0ec8b2d4}, !- Summer Design Day Schedule Name
  {6b9d9f1a-2098-45da-80e1-0ca97bc27531}; !- Winter Design Day Schedule Name

OS:Schedule:Day,
  {7aeb3ea1-ee79-4024-b894-525698784c69}, !- Handle
  Medium Office Lighting All Other Days Schedule, !- Name
  {c0d0da31-5d78-42c8-9549-4c517aa85ffe}, !- Schedule Type Limits Name
  ,                                       !- Interpolate to Timestep
  24,                                     !- Hour 1
  0,                                      !- Minute 1
  0.05;                                   !- Value Until Time 1

OS:Schedule:Day,
  {69031bf2-0110-4c11-9561-d5bc7a16848c}, !- Handle
  Medium Office Lighting Summer Design Day Schedule, !- Name
  ,                                       !- Schedule Type Limits Name
  ,                                       !- Interpolate to Timestep
  6,                                      !- Hour 1
  0,                                      !- Minute 1
  1,                                      !- Value Until Time 1
  24,                                     !- Hour 2
  0,                                      !- Minute 2
  0;                                      !- Value Until Time 2

OS:Schedule:Day,
  {ac531073-5db4-429f-b4db-81ed0ec8b2d4}, !- Handle
  Medium Office Lighting Summer Design Day Schedule 1, !- Name
  {c0d0da31-5d78-42c8-9549-4c517aa85ffe}, !- Schedule Type Limits Name
  ,                                       !- Interpolate to Timestep
  6,                                      !- Hour 1
  0,                                      !- Minute 1
  1,                                      !- Value Until Time 1
  24,                                     !- Hour 2
  0,                                      !- Minute 2
  0;                                      !- Value Until Time 2

OS:Schedule:Day,
  {85691a31-ec50-4fbc-bb17-05febc7c7dc4}, !- Handle
  Medium Office Lighting Winter Design Day Schedule, !- Name
  ,                                       !- Schedule Type Limits Name
  ,                                       !- Interpolate to Timestep
  24,                                     !- Hour 1
  0,                                      !- Minute 1
  0;                                      !- Value Until Time 1

OS:Schedule:Day,
  {6b9d9f1a-2098-45da-80e1-0ca97bc27531}, !- Handle
  Medium Office Lighting Winter Design Day Schedule 1, !- Name
  {c0d0da31-5d78-42c8-9549-4c517aa85ffe}, !- Schedule Type Limits Name
  ,                                       !- Interpolate to Timestep
  24,                                     !- Hour 1
  0,                                      !- Minute 1
  0;                                      !- Value Until Time 1

OS:Schedule:Rule,
  {1d6a055b-14c5-4c7a-8768-dc30fe4b8bf5}, !- Handle
  Medium Office Lighting Schedule Weekdays Rule, !- Name
  {a3ef50c2-341b-44fd-ac0c-64ee89118d1e}, !- Schedule Ruleset Name
  1,                                      !- Rule Order
  {c4ee5a7a-52bd-4471-9a93-8dabf6c30dba}, !- Day Schedule Name
  ,                                       !- Apply Sunday
  Yes,                                    !- Apply Monday
  Yes,                                    !- Apply Tuesday
  Yes,                                    !- Apply Wednesday
  Yes,                                    !- Apply Thursday
  Yes;                                    !- Apply Friday

OS:Schedule:Day,
  {c4ee5a7a-52bd-4471-9a93-8dabf6c30dba}, !- Handle
  Medium Office Lighting Weekdays Schedule, !- Name
  {c0d0da31-5d78-42c8-9549-4c517aa85ffe}, !- Schedule Type Limits Name
  ,                                       !- Interpolate to Timestep
  5,                                      !- Hour 1
  0,                                      !- Minute 1
  0.05,                                   !- Value Until Time 1
  7,                                      !- Hour 2
  0,                                      !- Minute 2
  0.1,                                    !- Value Until Time 2
  8,                                      !- Hour 3
  0,                                      !- Minute 3
  0.3,                                    !- Value Until Time 3
  17,                                     !- Hour 4
  0,                                      !- Minute 4
  0.9,                                    !- Value Until Time 4
  18,                                     !- Hour 5
  0,                                      !- Minute 5
  0.7,                                    !- Value Until Time 5
  20,                                     !- Hour 6
  0,                                      !- Minute 6
  0.5,                                    !- Value Until Time 6
  22,                                     !- Hour 7
  0,                                      !- Minute 7
  0.3,                                    !- Value Until Time 7
  23,                                     !- Hour 8
  0,                                      !- Minute 8
  0.1,                                    !- Value Until Time 8
  24,                                     !- Hour 9
  0,                                      !- Minute 9
  0.05;                                   !- Value Until Time 9

OS:Schedule:Rule,
  {6561a504-5b95-4021-a217-f9d5063bb780}, !- Handle
  Medium Office Lighting Schedule Saturday Rule, !- Name
  {a3ef50c2-341b-44fd-ac0c-64ee89118d1e}, !- Schedule Ruleset Name
  0,                                      !- Rule Order
  {c2576368-1c5b-49b5-a2ea-c67465aa6c02}, !- Day Schedule Name
  ,                                       !- Apply Sunday
  ,                                       !- Apply Monday
  ,                                       !- Apply Tuesday
  ,                                       !- Apply Wednesday
  ,                                       !- Apply Thursday
  ,                                       !- Apply Friday
  Yes;                                    !- Apply Saturday

OS:Schedule:Day,
  {c2576368-1c5b-49b5-a2ea-c67465aa6c02}, !- Handle
  Medium Office Lighting Saturday Schedule, !- Name
  {c0d0da31-5d78-42c8-9549-4c517aa85ffe}, !- Schedule Type Limits Name
  ,                                       !- Interpolate to Timestep
  6,                                      !- Hour 1
  0,                                      !- Minute 1
  0.05,                                   !- Value Until Time 1
  8,                                      !- Hour 2
  0,                                      !- Minute 2
  0.1,                                    !- Value Until Time 2
  14,                                     !- Hour 3
  0,                                      !- Minute 3
  0.5,                                    !- Value Until Time 3
  17,                                     !- Hour 4
  0,                                      !- Minute 4
  0.15,                                   !- Value Until Time 4
  24,                                     !- Hour 5
  0,                                      !- Minute 5
  0.05;                                   !- Value Until Time 5

OS:Schedule:Ruleset,
  {57606cef-6e6b-4f42-a536-0d5ea5e84e9d}, !- Handle
  Medium Office Electric Equipment Schedule, !- Name
  {c0d0da31-5d78-42c8-9549-4c517aa85ffe}, !- Schedule Type Limits Name
  {c8ad75bf-6aaf-4eb9-8b52-1ec3bb70ba18}, !- Default Day Schedule Name
  {48a91554-b5b9-42a4-aed9-1d4ee94c817d}, !- Summer Design Day Schedule Name
  {349b7d41-6b10-4ce5-b86e-a19f5097d131}; !- Winter Design Day Schedule Name

OS:Schedule:Day,
  {c8ad75bf-6aaf-4eb9-8b52-1ec3bb70ba18}, !- Handle
  Medium Office Electric Equipment All Other Days Schedule, !- Name
  {c0d0da31-5d78-42c8-9549-4c517aa85ffe}, !- Schedule Type Limits Name
  ,                                       !- Interpolate to Timestep
  24,                                     !- Hour 1
  0,                                      !- Minute 1
  0.3;                                    !- Value Until Time 1

OS:Schedule:Day,
  {00d68068-7fc3-4f00-b419-71f0f32a20e5}, !- Handle
  Medium Office Electric Equipment Summer Design Day Schedule, !- Name
  ,                                       !- Schedule Type Limits Name
  ,                                       !- Interpolate to Timestep
  6,                                      !- Hour 1
  0,                                      !- Minute 1
  1,                                      !- Value Until Time 1
  24,                                     !- Hour 2
  0,                                      !- Minute 2
  0;                                      !- Value Until Time 2

OS:Schedule:Day,
  {48a91554-b5b9-42a4-aed9-1d4ee94c817d}, !- Handle
  Medium Office Electric Equipment Summer Design Day Schedule 1, !- Name
  {c0d0da31-5d78-42c8-9549-4c517aa85ffe}, !- Schedule Type Limits Name
  ,                                       !- Interpolate to Timestep
  6,                                      !- Hour 1
  0,                                      !- Minute 1
  1,                                      !- Value Until Time 1
  24,                                     !- Hour 2
  0,                                      !- Minute 2
  0;                                      !- Value Until Time 2

OS:Schedule:Day,
  {8c775135-4caf-43d2-8379-8a7935767db7}, !- Handle
  Medium Office Electric Equipment Winter Design Day Schedule, !- Name
  ,                                       !- Schedule Type Limits Name
  ,                                       !- Interpolate to Timestep
  24,                                     !- Hour 1
  0,                                      !- Minute 1
  0;                                      !- Value Until Time 1

OS:Schedule:Day,
  {349b7d41-6b10-4ce5-b86e-a19f5097d131}, !- Handle
  Medium Office Electric Equipment Winter Design Day Schedule 1, !- Name
  {c0d0da31-5d78-42c8-9549-4c517aa85ffe}, !- Schedule Type Limits Name
  ,                                       !- Interpolate to Timestep
  24,                                     !- Hour 1
  0,                                      !- Minute 1
  0;                                      !- Value Until Time 1

OS:Schedule:Rule,
  {6d4ec908-61d5-4d6b-a38a-47ccf210cac4}, !- Handle
  Medium Office Electric Equipment Schedule Weekdays Rule, !- Name
  {57606cef-6e6b-4f42-a536-0d5ea5e84e9d}, !- Schedule Ruleset Name
  1,                                      !- Rule Order
  {b6f173cc-3e25-4aa5-8cb1-951b31edbea5}, !- Day Schedule Name
  ,                                       !- Apply Sunday
  Yes,                                    !- Apply Monday
  Yes,                                    !- Apply Tuesday
  Yes,                                    !- Apply Wednesday
  Yes,                                    !- Apply Thursday
  Yes;                                    !- Apply Friday

OS:Schedule:Day,
  {b6f173cc-3e25-4aa5-8cb1-951b31edbea5}, !- Handle
  Medium Office Electric Equipment Weekdays Schedule, !- Name
  {c0d0da31-5d78-42c8-9549-4c517aa85ffe}, !- Schedule Type Limits Name
  ,                                       !- Interpolate to Timestep
  8,                                      !- Hour 1
  0,                                      !- Minute 1
  0.4,                                    !- Value Until Time 1
  12,                                     !- Hour 2
  0,                                      !- Minute 2
  0.9,                                    !- Value Until Time 2
  13,                                     !- Hour 3
  0,                                      !- Minute 3
  0.8,                                    !- Value Until Time 3
  17,                                     !- Hour 4
  0,                                      !- Minute 4
  0.9,                                    !- Value Until Time 4
  18,                                     !- Hour 5
  0,                                      !- Minute 5
  0.8,                                    !- Value Until Time 5
  20,                                     !- Hour 6