
OS:Version,
  {2c75ad67-fc50-44ed-a6f6-ce38fc3d9b1e}, !- Handle
  1.5.5;                                  !- Version Identifier

OS:ClimateZones,
  {135edfab-17e7-40db-a436-27d385a8cd6d}, !- Handle
  ,                                       !- Active Institution
  ,                                       !- Active Year
  ASHRAE,                                 !- Climate Zone Institution Name 1
  ANSI/ASHRAE Standard 169,               !- Climate Zone Document Name 1
  2006,                                   !- Climate Zone Document Year 1
  ,                                       !- Climate Zone Value 1
  CEC,                                    !- Climate Zone Institution Name 2
  California Climate Zone Descriptions,   !- Climate Zone Document Name 2
  1995,                                   !- Climate Zone Document Year 2
  ;                                       !- Climate Zone Value 2

OS:YearDescription,
  {513d8dda-86cb-442a-b01c-1f7f0e0ac70e}; !- Handle

OS:RadianceParameters,
  {270a96f1-3c86-4b75-a667-cdf22790e2c8}, !- Handle
  1,                                      !- Accumulated Rays per Record
  0,                                      !- Direct Threshold
  1,                                      !- Direct Certainty
  1,                                      !- Direct Jitter
  1,                                      !- Direct Pretest
  6,                                      !- Ambient Bounces VMX
  2,                                      !- Ambient Bounces DMX
  4050,                                   !- Ambient Divisions VMX
  512,                                    !- Ambient Divisions DMX
  256,                                    !- Ambient Supersamples
  0.001,                                  !- Limit Weight VMX
  0.001,                                  !- Limit Weight DMX
  500,                                    !- Klems Sampling Density
  146;                                    !- Sky Discretization Resolution

OS:SimulationControl,
  {2c487a4c-bac9-4ac5-b669-1e49d9da7c2b}, !- Handle
  ,                                       !- Do Zone Sizing Calculation
  ,                                       !- Do System Sizing Calculation
  ,                                       !- Do Plant Sizing Calculation
  No,                                     !- Run Simulation for Sizing Periods
  ,                                       !- Run Simulation for Weather File Run Periods
  0.04,                                   !- Loads Convergence Tolerance Value
  ,                                       !- Temperature Convergence Tolerance Value {deltaC}
  ,                                       !- Solar Distribution
  ,                                       !- Maximum Number of Warmup Days
  2;                                      !- Minimum Number of Warmup Days

OS:Sizing:Parameters,
  {dde5af6f-7923-4600-a28a-7556673a0266}, !- Handle
  1.25,                                   !- Heating Sizing Factor
  1.15;                                   !- Cooling Sizing Factor

OS:ProgramControl,
  {05027a99-f2b3-4aeb-afc6-1425fbb4371d}; !- Handle

OS:Timestep,
  {4ebc9f1e-4707-402e-9844-67eb1ffbd522}, !- Handle
  2;                                      !- Number of Timesteps per Hour

OS:OutputControl:ReportingTolerances,
  {65797aa2-06a9-45fe-b69d-bc6e060399d3}; !- Handle

OS:ConvergenceLimits,
  {9fc11aba-8822-4f3d-970c-46391ba4040d}; !- Handle

OS:ShadowCalculation,
  {ca758bea-4416-4626-9bba-3d8795c79bd6}, !- Handle
  7,                                      !- Calculation Frequency
  15000;                                  !- Maximum Figures in Shadow Overlap Calculations

OS:SurfaceConvectionAlgorithm:Inside,
  {aaabfc36-718a-4ab0-b622-f186ebb45230}, !- Handle
  TARP;                                   !- Algorithm

OS:SurfaceConvectionAlgorithm:Outside,
  {9a0a9f6f-4bbd-4b12-a121-9492a1fcd7d6}, !- Handle
  DOE-2;                                  !- Algorithm

OS:HeatBalanceAlgorithm,
  {9d93e563-e1e0-46d7-9e39-d1c8aceb7212}, !- Handle
  ConductionTransferFunction,             !- Algorithm
  200;                                    !- Surface Temperature Upper Limit {F}

OS:ZoneAirHeatBalanceAlgorithm,
  {8520d93e-310f-4696-9bcd-36228bfdd743}, !- Handle
  AnalyticalSolution;                     !- Algorithm

OS:ZoneAirContaminantBalance,
  {eb5fc3ae-fb22-4160-8fcb-3e3b22b000d3}; !- Handle

OS:ZoneCapacitanceMultiplier:ResearchSpecial,
  {4020ce4f-5a7a-4849-8028-8305d7b751b1}, !- Handle
  ,                                       !- Temperature Capacity Multiplier
  ,                                       !- Humidity Capacity Multiplier
  ;                                       !- Carbon Dioxide Capacity Multiplier

OS:RunPeriod,
  {28df894d-6af9-4fb8-8f56-df1753344aa3}, !- Handle
  Run Period 1,                           !- Name
  1,                                      !- Begin Month
  1,                                      !- Begin Day of Month
  12,                                     !- End Month
  31,                                     !- End Day of Month
  ,                                       !- Use Weather File Holidays and Special Days
  ,                                       !- Use Weather File Daylight Saving Period
  ,                                       !- Apply Weekend Holiday Rule
  ,                                       !- Use Weather File Rain Indicators
  ,                                       !- Use Weather File Snow Indicators
  ;                                       !- Number of Times Runperiod to be Repeated

OS:Building,
  {bf305633-c5a1-4881-9edf-ca5e1a8e1274}, !- Handle
  Building 1,                             !- Name
  ,                                       !- Building Sector Type
  ,                                       !- North Axis {deg}
  ,                                       !- Nominal Floor to Floor Height {m}
  ,                                       !- Space Type Name
  ,                                       !- Default Construction Set Name
  {6df7b646-ac3b-41b1-a13f-1f8892744b55}, !- Default Schedule Set Name
  ,                                       !- Standards Number of Stories
  ,                                       !- Standards Number of Above Ground Stories
  Outpatient;                             !- Standards Building Type

OS:LifeCycleCost:Parameters,
  {231cf8a0-f0e7-4251-a99f-11f0d464e661}, !- Handle
  FEMP,                                   !- Analysis Type
  ,                                       !- Discounting Convention
  ,                                       !- Inflation Approach
  ,                                       !- Real Discount Rate
  ,                                       !- Nominal Discount Rate
  ,                                       !- Inflation
  ,                                       !- Base Date Month
  ,                                       !- Base Date Year
  ,                                       !- Service Date Month
  ,                                       !- Service Date Year
  ,                                       !- Length of Study Period in Years
  ,                                       !- Tax Rate
  ,                                       !- Depreciation Method
  Yes;                                    !- Use NIST Fuel Escalation Rates

OS:Facility,
  {3ba8e45b-b833-44eb-a723-ea6c3946dc96}; !- Handle

OS:SpaceType,
  {2fd45b8e-91af-4ccd-bc33-21254759a9de}, !- Handle
  Outpatient|BlendCirc|DOE Ref Pre-1980|ASHRAE 169-2006-5A, !- Name
  {75fac498-48a7-4875-a482-fa0e9f1af95b}, !- Default Construction Set Name
  ,                                       !- Default Schedule Set Name
  {c103aeb8-7fb9-4ae0-a45e-4be3a26ed5a1}, !- Group Rendering Name
  {3a8ffd33-333d-4d9d-8cc7-f6445cfe6c2a}, !- Design Specification Outdoor Air Object Name
  Outpatient,                             !- Standards Building Type
  BlendCirc;                              !- Standards Space Type

OS:Rendering:Color,
  {c103aeb8-7fb9-4ae0-a45e-4be3a26ed5a1}, !- Handle
  Rendering Color 1,                      !- Name
  169,                                    !- Rendering Red Value
  31,                                     !- Rendering Green Value
  31;                                     !- Rendering Blue Value

OS:SpaceType,
  {b0d7b0d0-eb80-4449-9bca-42243a4692a8}, !- Handle
  Outpatient|BlendOff|DOE Ref Pre-1980|ASHRAE 169-2006-5A, !- Name
  {75fac498-48a7-4875-a482-fa0e9f1af95b}, !- Default Construction Set Name
  ,                                       !- Default Schedule Set Name
  {b2455200-45c1-45fd-9632-d58b1f36038b}, !- Group Rendering Name
  {e426bbea-38f6-4e4f-bfa3-6bbc04918ca9}, !- Design Specification Outdoor Air Object Name
  Outpatient,                             !- Standards Building Type
  BlendOff;                               !- Standards Space Type

OS:Rendering:Color,
  {b2455200-45c1-45fd-9632-d58b1f36038b}, !- Handle
  Rendering Color 2,                      !- Name
  120,                                    !- Rendering Red Value
  230,                                    !- Rendering Green Value
  199;                                    !- Rendering Blue Value

OS:SpaceType,
  {96a12c7b-12a0-4e11-aa1a-11e043bb74e8}, !- Handle
  Outpatient|BlendPat|DOE Ref Pre-1980|ASHRAE 169-2006-5A, !- Name
  {75fac498-48a7-4875-a482-fa0e9f1af95b}, !- Default Construction Set Name
  ,                                       !- Default Schedule Set Name
  {8f1a8351-43d2-46a8-a0e8-7cfb23db37c0}, !- Group Rendering Name
  {c6d7e266-a73a-40c5-a43a-f51e3209840a}, !- Design Specification Outdoor Air Object Name
  Outpatient,                             !- Standards Building Type
  BlendPat;                               !- Standards Space Type

OS:Rendering:Color,
  {8f1a8351-43d2-46a8-a0e8-7cfb23db37c0}, !- Handle
  Rendering Color 3,                      !- Name
  136,                                    !- Rendering Red Value
  78,                                     !- Rendering Green Value
  222;                                    !- Rendering Blue Value

OS:SpaceType,
  {51e63abe-e422-4bc6-b69b-7d3985781fc8}, !- Handle
  Outpatient|BlendImg|DOE Ref Pre-1980|ASHRAE 169-2006-5A, !- Name
  {75fac498-48a7-4875-a482-fa0e9f1af95b}, !- Default Construction Set Name
  ,                                       !- Default Schedule Set Name
  {08a9972d-4ea9-4bc0-8921-a757acfd7cb8}, !- Group Rendering Name
  {1e967ddf-7757-4967-8627-d4e68d2f8af8}, !- Design Specification Outdoor Air Object Name
  Outpatient,                             !- Standards Building Type
  BlendImg;                               !- Standards Space Type

OS:Rendering:Color,
  {08a9972d-4ea9-4bc0-8921-a757acfd7cb8}, !- Handle
  Rendering Color 4,                      !- Name
  169,                                    !- Rendering Red Value
  31,                                     !- Rendering Green Value
  159;                                    !- Rendering Blue Value

OS:SpaceType,
  {d661c604-2288-4dc6-9b35-9b5980d8cde4}, !- Handle
  Outpatient|BlendMedStg|DOE Ref Pre-1980|ASHRAE 169-2006-5A, !- Name
  {75fac498-48a7-4875-a482-fa0e9f1af95b}, !- Default Construction Set Name
  ,                                       !- Default Schedule Set Name
  {a4df02ff-83f1-4f36-b99d-fe2691ce60eb}, !- Group Rendering Name
  {fb17d47c-3ff7-484f-a83c-5fc16502d6b9}, !- Design Specification Outdoor Air Object Name
  Outpatient,                             !- Standards Building Type
  BlendMedStg;                            !- Standards Space Type

OS:Rendering:Color,
  {a4df02ff-83f1-4f36-b99d-fe2691ce60eb}, !- Handle
  Rendering Color 5,                      !- Name
  204,                                    !- Rendering Red Value
  120,                                    !- Rendering Green Value
  230;                                    !- Rendering Blue Value

OS:SpaceType,
  {732abadc-bb74-4ab5-9b6b-bf6845f211be}, !- Handle
  Outpatient|BlendMisc|DOE Ref Pre-1980|ASHRAE 169-2006-5A, !- Name
  {75fac498-48a7-4875-a482-fa0e9f1af95b}, !- Default Construction Set Name
  ,                                       !- Default Schedule Set Name
  {eda2c123-d3ef-410f-a6c6-f218a578c2a3}, !- Group Rendering Name
  {357061b9-c7c0-4f87-8f2c-201fce3a259b}, !- Design Specification Outdoor Air Object Name
  Outpatient,                             !- Standards Building Type
  BlendMisc;                              !- Standards Space Type

OS:Rendering:Color,
  {eda2c123-d3ef-410f-a6c6-f218a578c2a3}, !- Handle
  Rendering Color 6,                      !- Name
  120,                                    !- Rendering Red Value
  149,                                    !- Rendering Green Value
  230;                                    !- Rendering Blue Value

OS:Schedule:Ruleset,
  {4f221b8e-d1e0-46e4-8490-0496c0dbfe2b}, !- Handle
  0400|2200|Outpatient|default|hoo,       !- Name
  {927987ec-1e3c-4a63-9405-14c4e466c3ed}, !- Schedule Type Limits Name
  {6457cb58-4203-4e85-beb4-83c29702353a}, !- Default Day Schedule Name
  {f417d0c9-f383-44b1-8382-1e1a1d19b364}, !- Summer Design Day Schedule Name
  {9baea49b-5b7b-4929-859a-9d18481c2753}; !- Winter Design Day Schedule Name

OS:Schedule:Day,
  {6457cb58-4203-4e85-beb4-83c29702353a}, !- Handle
  0400|2200|Outpatient|default|hoo Schedule Week Day, !- Name
  {927987ec-1e3c-4a63-9405-14c4e466c3ed}, !- Schedule Type Limits Name
  ,                                       !- Interpolate to Timestep
  4,                                      !- Hour 1
  0,                                      !- Minute 1
  0,                                      !- Value Until Time 1
  22,                                     !- Hour 2
  0,                                      !- Minute 2
  1,                                      !- Value Until Time 2
  24,                                     !- Hour 3
  0,                                      !- Minute 3
  0;                                      !- Value Until Time 3

OS:Schedule:Day,
  {93928fb6-aa73-469c-90fd-b7a36ded1b42}, !- Handle
  Schedule Day 2,                         !- Name
  ,                                       !- Schedule Type Limits Name
  ,                                       !- Interpolate to Timestep
  24,                                     !- Hour 1
  0,                                      !- Minute 1
  0;                                      !- Value Until Time 1

OS:Schedule:Day,
  {9baea49b-5b7b-4929-859a-9d18481c2753}, !- Handle
  0400|2200|Outpatient|default|hoo Winter Design Day, !- Name
  {927987ec-1e3c-4a63-9405-14c4e466c3ed}, !- Schedule Type Limits Name
  ,                                       !- Interpolate to Timestep
  24,                                     !- Hour 1
  0,                                      !- Minute 1
  0;                                      !- Value Until Time 1

OS:Schedule:Day,
  {f7c29f54-6a9f-499c-90a3-c20b5c7c6346}, !- Handle
  Schedule Day 3,                         !- Name
  ,                                       !- Schedule Type Limits Name
  ,                                       !- Interpolate to Timestep
  24,                                     !- Hour 1
  0,                                      !- Minute 1
  0;                                      !- Value Until Time 1

OS:Schedule:Day,
  {f417d0c9-f383-44b1-8382-1e1a1d19b364}, !- Handle
  0400|2200|Outpatient|default|hoo Summer Design Day, !- Name
  {927987ec-1e3c-4a63-9405-14c4e466c3ed}, !- Schedule Type Limits Name
  ,                                       !- Interpolate to Timestep
  24,                                     !- Hour 1
  0,                                      !- Minute 1
  1;                                      !- Value Until Time 1

OS:DefaultScheduleSet,
  {6df7b646-ac3b-41b1-a13f-1f8892744b55}, !- Handle
  Building Hours of Operation,            !- Name
  {4f221b8e-d1e0-46e4-8490-0496c0dbfe2b}, !- Hours of Operation Schedule Name
  ,                                       !- Number of People Schedule Name
  ,                                       !- People Activity Level Schedule Name
  ,                                       !- Lighting Schedule Name
  ,                                       !- Electric Equipment Schedule Name
  ,                                       !- Gas Equipment Schedule Name
  ,                                       !- Hot Water Equipment Schedule Name
  ,                                       !- Infiltration Schedule Name
  ,                                       !- Steam Equipment Schedule Name
  ;                                       !- Other Equipment Schedule Name

OS:ScheduleTypeLimits,
  {927987ec-1e3c-4a63-9405-14c4e466c3ed}, !- Handle
  OnOff,                                  !- Name
  0,                                      !- Lower Limit Value {BasedOnField A4}
  1,                                      !- Upper Limit Value {BasedOnField A4}
  Discrete,                               !- Numeric Type
  Availability;                           !- Unit Type

OS:Schedule:Ruleset,
  {69172375-24cb-4309-aee3-bcb7f32ce9e3}, !- Handle
  0400|2200|Outpatient|default|htg_setpoint, !- Name
  {116952ef-21b4-40f9-9557-45767174359a}, !- Schedule Type Limits Name
  {0bfad47e-e2b9-4d2a-81c6-89baa5b2ca2a}, !- Default Day Schedule Name
  {8af3d419-b03f-40e0-9277-4adb5e7cc818}, !- Summer Design Day Schedule Name
  {f0213f69-a631-4191-a800-8281d9c067b5}; !- Winter Design Day Schedule Name

OS:ScheduleTypeLimits,
  {116952ef-21b4-40f9-9557-45767174359a}, !- Handle
  Thermostat Heating Setpoint Schedule Type Limits, !- Name
  0,                                      !- Lower Limit Value {BasedOnField A4}
  100,                                    !- Upper Limit Value {BasedOnField A4}
  Continuous,                             !- Numeric Type
  Temperature;                            !- Unit Type

OS:Schedule:Day,
  {0bfad47e-e2b9-4d2a-81c6-89baa5b2ca2a}, !- Handle
  0400|2200|Outpatient|default|htg_setpoint |default, !- Name
  {116952ef-21b4-40f9-9557-45767174359a}, !- Schedule Type Limits Name
  ,                                       !- Interpolate to Timestep
  5,                                      !- Hour 1
  0,                                      !- Minute 1
  18.3,                                   !- Value Until Time 1
  18,                                     !- Hour 2
  0,                                      !- Minute 2
  21.1,                                   !- Value Until Time 2
  24,                                     !- Hour 3
  0,                                      !- Minute 3
  18.3;                                   !- Value Until Time 3

OS:Schedule:Day,
  {8af3d419-b03f-40e0-9277-4adb5e7cc818}, !- Handle
  0400|2200|Outpatient|default|htg_setpoint Summer Design Day, !- Name
  {116952ef-21b4-40f9-9557-45767174359a}, !- Schedule Type Limits Name
  ,                                       !- Interpolate to Timestep
  5,                                      !- Hour 1
  0,                                      !- Minute 1
  18.3,                                   !- Value Until Time 1
  18,                                     !- Hour 2
  0,                                      !- Minute 2
  21.1,                                   !- Value Until Time 2
  24,                                     !- Hour 3
  0,                                      !- Minute 3
  18.3;                                   !- Value Until Time 3

OS:Schedule:Day,
  {f0213f69-a631-4191-a800-8281d9c067b5}, !- Handle
  0400|2200|Outpatient|default|htg_setpoint Winter Design Day, !- Name
  {116952ef-21b4-40f9-9557-45767174359a}, !- Schedule Type Limits Name
  ,                                       !- Interpolate to Timestep
  24,                                     !- Hour 1
  0,                                      !- Minute 1
  18.3;                                   !- Value Until Time 1

OS:Schedule:Rule,
  {309fca6d-419a-4fc6-a0b1-4e76b35c0e8c}, !- Handle
  0400|2200|Outpatient|default|htg_setpoint |1/1-12/31|Sat/Sun Rule, !- Name
  {69172375-24cb-4309-aee3-bcb7f32ce9e3}, !- Schedule Ruleset Name
  0,                                      !- Rule Order
  {dc1428b3-4334-4d3b-8ee0-ad190adc228b}, !- Day Schedule Name
  Yes,                                    !- Apply Sunday
  ,                                       !- Apply Monday
  ,                                       !- Apply Tuesday
  ,                                       !- Apply Wednesday
  ,                                       !- Apply Thursday
  ,                                       !- Apply Friday
  Yes,                                    !- Apply Saturday
  ,                                       !- Apply Holiday
  DateRange,                              !- Date Specification Type
  1,                                      !- Start Month
  1,                                      !- Start Day
  12,                                     !- End Month
  31;                                     !- End Day

OS:Schedule:Day,
  {dc1428b3-4334-4d3b-8ee0-ad190adc228b}, !- Handle
  0400|2200|Outpatient|default|htg_setpoint |1/1-12/31|Sat/Sun, !- Name
  {116952ef-21b4-40f9-9557-45767174359a}, !- Schedule Type Limits Name
  ,                                       !- Interpolate to Timestep
  24,                                     !- Hour 1
  0,                                      !- Minute 1
  18.3;                                   !- Value Until Time 1

OS:Schedule:Ruleset,
  {323f78e6-32bd-40b7-a898-0e6131457418}, !- Handle
  0400|2200|Outpatient|default|thermal_ctrl, !- Name
  {a1a5af1d-5393-4aab-a629-95a65f7a68c8}, !- Schedule Type Limits Name
  {e4da763e-35bf-41b3-a163-247b5dfb612f}, !- Default Day Schedule Name
  {35d78f64-86bf-432d-a128-3af6a29b7ecf}, !- Summer Design Day Schedule Name
  {16cdc1fa-55c3-4c84-84ab-2ce8edd411e7}; !- Winter Design Day Schedule Name

OS:ScheduleTypeLimits,
  {a1a5af1d-5393-4aab-a629-95a65f7a68c8}, !- Handle
  Dimensionless Schedule Type Limits,     !- Name
  ,                                       !- Lower Limit Value {BasedOnField A4}
  ,                                       !- Upper Limit Value {BasedOnField A4}
  Continuous,                             !- Numeric Type
  Dimensionless;                          !- Unit Type

OS:Schedule:Day,
  {e4da763e-35bf-41b3-a163-247b5dfb612f}, !- Handle
  0400|2200|Outpatient|default|thermal_ctrl |default, !- Name
  {a1a5af1d-5393-4aab-a629-95a65f7a68c8}, !- Schedule Type Limits Name
  ,                                       !- Interpolate to Timestep
  24,                                     !- Hour 1
  0,                                      !- Minute 1
  4;                                      !- Value Until Time 1

OS:Schedule:Day,
  {35d78f64-86bf-432d-a128-3af6a29b7ecf}, !- Handle
  0400|2200|Outpatient|default|thermal_ctrl Summer Design Day, !- Name
  {a1a5af1d-5393-4aab-a629-95a65f7a68c8}, !- Schedule Type Limits Name
  ,                                       !- Interpolate to Timestep
  24,                                     !- Hour 1
  0,                                      !- Minute 1
  4;                                      !- Value Until Time 1

OS:Schedule:Day,
  {16cdc1fa-55c3-4c84-84ab-2ce8edd411e7}, !- Handle
  0400|2200|Outpatient|default|thermal_ctrl Winter Design Day, !- Name
  {a1a5af1d-5393-4aab-a629-95a65f7a68c8}, !- Schedule Type Limits Name
  ,                                       !- Interpolate to Timestep
  24,                                     !- Hour 1
  0,                                      !- Minute 1
  4;                                      !- Value Until Time 1

OS:Schedule:Ruleset,
  {9e140ee0-3e0e-40a4-a7f4-d7531a6503ff}, !- Handle
  0400|2200|Outpatient|default|activity,  !- Name
  {ca49ca17-2020-4acc-b388-154ab2e5ec1b}, !- Schedule Type Limits Name
  {00af2092-e645-466e-8d34-2a4c29211b74}, !- Default Day Schedule Name
  {2f1b26c6-6084-492a-9abe-484f73e3ba38}, !- Summer Design Day Schedule Name
  {53ffdbd7-c96b-4a63-a1b9-ece0bd1d60c2}; !- Winter Design Day Schedule Name

OS:ScheduleTypeLimits,
  {ca49ca17-2020-4acc-b388-154ab2e5ec1b}, !- Handle
  People Activity Type Limits,            !- Name
  0,                                      !- Lower Limit Value {BasedOnField A4}
  ,                                       !- Upper Limit Value {BasedOnField A4}
  Continuous,                             !- Numeric Type
  ActivityLevel;                          !- Unit Type

OS:Schedule:Day,
  {00af2092-e645-466e-8d34-2a4c29211b74}, !- Handle
  0400|2200|Outpatient|default|activity |default, !- Name
  {ca49ca17-2020-4acc-b388-154ab2e5ec1b}, !- Schedule Type Limits Name
  ,                                       !- Interpolate to Timestep
  24,                                     !- Hour 1
  0,                                      !- Minute 1
  120;                                    !- Value Until Time 1

OS:Schedule:Day,
  {2f1b26c6-6084-492a-9abe-484f73e3ba38}, !- Handle
  0400|2200|Outpatient|default|activity Summer Design Day, !- Name
  {ca49ca17-2020-4acc-b388-154ab2e5ec1b}, !- Schedule Type Limits Name
  ,                                       !- Interpolate to Timestep
  24,                                     !- Hour 1
  0,                                      !- Minute 1
  120;                                    !- Value Until Time 1

OS:Schedule:Day,
  {53ffdbd7-c96b-4a63-a1b9-ece0bd1d60c2}, !- Handle
  0400|2200|Outpatient|default|activity Winter Design Day, !- Name
  {ca49ca17-2020-4acc-b388-154ab2e5ec1b}, !- Schedule Type Limits Name
  ,                                       !- Interpolate to Timestep
  24,                                     !- Hour 1
  0,                                      !- Minute 1
  120;                                    !- Value Until Time 1

OS:Schedule:Ruleset,
  {81136511-95be-4855-a1e5-bf390793364c}, !- Handle
  0400|2200|Outpatient|OR|clg_setpoint,   !- Name
  {2c94a564-d661-46db-a21e-607648254efc}, !- Schedule Type Limits Name
  {3c30dc93-1fa1-41de-8fc4-21d419f5a986}, !- Default Day Schedule Name
  {1d129cc4-e3ca-4da9-8312-49c9fd286ab4}, !- Summer Design Day Schedule Name
  {83f51e3b-0e3e-4fad-a66d-bc30b1f7c197}; !- Winter Design Day Schedule Name

OS:ScheduleTypeLimits,
  {2c94a564-d661-46db-a21e-607648254efc}, !- Handle
  Thermostat Cooling Setpoint Schedule Type Limits, !- Name
  0,                                      !- Lower Limit Value {BasedOnField A4}
  100,                                    !- Upper Limit Value {BasedOnField A4}
  Continuous,                             !- Numeric Type
  Temperature;                            !- Unit Type

OS:Schedule:Day,
  {3c30dc93-1fa1-41de-8fc4-21d419f5a986}, !- Handle
  0400|2200|Outpatient|OR|clg_setpoint |default, !- Name
  {2c94a564-d661-46db-a21e-607648254efc}, !- Schedule Type Limits Name
  ,                                       !- Interpolate to Timestep
  6,                                      !- Hour 1
  0,                                      !- Minute 1
  22.2,                                   !- Value Until Time 1
  17,                                     !- Hour 2
  0,                                      !- Minute 2
  18.3,                                   !- Value Until Time 2
  24,                                     !- Hour 3
  0,                                      !- Minute 3
  22.2;                                   !- Value Until Time 3

OS:Schedule:Day,
  {1d129cc4-e3ca-4da9-8312-49c9fd286ab4}, !- Handle
  0400|2200|Outpatient|OR|clg_setpoint Summer Design Day, !- Name
  {2c94a564-d661-46db-a21e-607648254efc}, !- Schedule Type Limits Name
  ,                                       !- Interpolate to Timestep
  24,                                     !- Hour 1
  0,                                      !- Minute 1
  22.2;                                   !- Value Until Time 1

OS:Schedule:Day,
  {83f51e3b-0e3e-4fad-a66d-bc30b1f7c197}, !- Handle
  0400|2200|Outpatient|OR|clg_setpoint Winter Design Day, !- Name
  {2c94a564-d661-46db-a21e-607648254efc}, !- Schedule Type Limits Name
  ,                                       !- Interpolate to Timestep
  6,                                      !- Hour 1
  0,                                      !- Minute 1
  22.2,                                   !- Value Until Time 1
  17,                                     !- Hour 2
  0,                                      !- Minute 2
  18.3,                                   !- Value Until Time 2
  24,                                     !- Hour 3
  0,                                      !- Minute 3
  22.2;                                   !- Value Until Time 3

OS:Schedule:Ruleset,
  {f0ff431e-6be7-46c6-8272-60be16b357db}, !- Handle
  0400|2200|Outpatient|default|lighting,  !- Name
  {17274bb7-040b-4ff9-86f8-579b8d337de3}, !- Schedule Type Limits Name
  {7975c96b-a046-4258-8fab-70451c246eec}, !- Default Day Schedule Name
  {5320dcbc-4cb8-4a7c-9e4a-fc2b42f3c05d}, !- Summer Design Day Schedule Name
  {045dedae-c8f4-422a-94d2-a1b8ff5e382d}; !- Winter Design Day Schedule Name

OS:ScheduleTypeLimits,
  {17274bb7-040b-4ff9-86f8-579b8d337de3}, !- Handle
  Lights Schedule Type Limits,            !- Name
  0,                                      !- Lower Limit Value {BasedOnField A4}
  1,                                      !- Upper Limit Value {BasedOnField A4}
  Continuous,                             !- Numeric Type
  Dimensionless;                          !- Unit Type

OS:Schedule:Day,
  {7975c96b-a046-4258-8fab-70451c246eec}, !- Handle
  0400|2200|Outpatient|default|lighting |default, !- Name
  {17274bb7-040b-4ff9-86f8-579b8d337de3}, !- Schedule Type Limits Name
  ,                                       !- Interpolate to Timestep
  4,                                      !- Hour 1
  0,                                      !- Minute 1
  0.1,                                    !- Value Until Time 1
  6,                                      !- Hour 2
  0,                                      !- Minute 2
  0.3,                                    !- Value Until Time 2
  7,                                      !- Hour 3