
OS:Version,
  {83313fa3-659c-4319-aeb3-66890cf6af98}, !- Handle
  1.5.5;                                  !- Version Identifier

OS:ClimateZones,
  {135edfab-17e7-40db-a436-27d385a8cd6d}, !- Handle
  ,                                       !- Active Institution
  ,                                       !- Active Year
  ASHRAE,                                 !- Climate Zone Institution Name 1
  ANSI/ASHRAE Standard 169,               !- Climate Zone Document Name 1
  2006,                                   !- Climate Zone Document Year 1
  ,                                       !- Climate Zone Value 1
  CEC,                                    !- Climate Zone Institution Name 2
  California Climate Zone Descriptions,   !- Climate Zone Document Name 2
  1995,                                   !- Climate Zone Document Year 2
  ;                                       !- Climate Zone Value 2

OS:YearDescription,
  {513d8dda-86cb-442a-b01c-1f7f0e0ac70e}; !- Handle

OS:RadianceParameters,
  {270a96f1-3c86-4b75-a667-cdf22790e2c8}, !- Handle
  1,                                      !- Accumulated Rays per Record
  0,                                      !- Direct Threshold
  1,                                      !- Direct Certainty
  1,                                      !- Direct Jitter
  1,                                      !- Direct Pretest
  6,                                      !- Ambient Bounces VMX
  2,                                      !- Ambient Bounces DMX
  4050,                                   !- Ambient Divisions VMX
  512,                                    !- Ambient Divisions DMX
  256,                                    !- Ambient Supersamples
  0.001,                                  !- Limit Weight VMX
  0.001,                                  !- Limit Weight DMX
  500,                                    !- Klems Sampling Density
  146;                                    !- Sky Discretization Resolution

OS:SimulationControl,
  {2c487a4c-bac9-4ac5-b669-1e49d9da7c2b}, !- Handle
  ,                                       !- Do Zone Sizing Calculation
  ,                                       !- Do System Sizing Calculation
  ,                                       !- Do Plant Sizing Calculation
  No,                                     !- Run Simulation for Sizing Periods
  ,                                       !- Run Simulation for Weather File Run Periods
  0.04,                                   !- Loads Convergence Tolerance Value
  ,                                       !- Temperature Convergence Tolerance Value {deltaC}
  ,                                       !- Solar Distribution
  ,                                       !- Maximum Number of Warmup Days
  2;                                      !- Minimum Number of Warmup Days

OS:Sizing:Parameters,
  {dde5af6f-7923-4600-a28a-7556673a0266}, !- Handle
  1.25,                                   !- Heating Sizing Factor
  1.15;                                   !- Cooling Sizing Factor

OS:ProgramControl,
  {05027a99-f2b3-4aeb-afc6-1425fbb4371d}; !- Handle

OS:Timestep,
  {4ebc9f1e-4707-402e-9844-67eb1ffbd522}, !- Handle
  2;                                      !- Number of Timesteps per Hour

OS:OutputControl:ReportingTolerances,
  {65797aa2-06a9-45fe-b69d-bc6e060399d3}; !- Handle

OS:ConvergenceLimits,
  {9fc11aba-8822-4f3d-970c-46391ba4040d}; !- Handle

OS:ShadowCalculation,
  {ca758bea-4416-4626-9bba-3d8795c79bd6}, !- Handle
  7,                                      !- Calculation Frequency
  15000;                                  !- Maximum Figures in Shadow Overlap Calculations

OS:SurfaceConvectionAlgorithm:Inside,
  {aaabfc36-718a-4ab0-b622-f186ebb45230}, !- Handle
  TARP;                                   !- Algorithm

OS:SurfaceConvectionAlgorithm:Outside,
  {9a0a9f6f-4bbd-4b12-a121-9492a1fcd7d6}, !- Handle
  DOE-2;                                  !- Algorithm

OS:HeatBalanceAlgorithm,
  {9d93e563-e1e0-46d7-9e39-d1c8aceb7212}, !- Handle
  ConductionTransferFunction,             !- Algorithm
  200;                                    !- Surface Temperature Upper Limit {F}

OS:ZoneAirHeatBalanceAlgorithm,
  {8520d93e-310f-4696-9bcd-36228bfdd743}, !- Handle
  AnalyticalSolution;                     !- Algorithm

OS:ZoneAirContaminantBalance,
  {eb5fc3ae-fb22-4160-8fcb-3e3b22b000d3}; !- Handle

OS:ZoneCapacitanceMultiplier:ResearchSpecial,
  {4020ce4f-5a7a-4849-8028-8305d7b751b1}, !- Handle
  ,                                       !- Temperature Capacity Multiplier
  ,                                       !- Humidity Capacity Multiplier
  ;                                       !- Carbon Dioxide Capacity Multiplier

OS:RunPeriod,
  {28df894d-6af9-4fb8-8f56-df1753344aa3}, !- Handle
  Run Period 1,                           !- Name
  1,                                      !- Begin Month
  1,                                      !- Begin Day of Month
  12,                                     !- End Month
  31,                                     !- End Day of Month
  ,                                       !- Use Weather File Holidays and Special Days
  ,                                       !- Use Weather File Daylight Saving Period
  ,                                       !- Apply Weekend Holiday Rule
  ,                                       !- Use Weather File Rain Indicators
  ,                                       !- Use Weather File Snow Indicators
  ;                                       !- Number of Times Runperiod to be Repeated

OS:Building,
  {bf305633-c5a1-4881-9edf-ca5e1a8e1274}, !- Handle
  Building 1,                             !- Name
  ,                                       !- Building Sector Type
  ,                                       !- North Axis {deg}
  ,                                       !- Nominal Floor to Floor Height {m}
  ,                                       !- Space Type Name
  ,                                       !- Default Construction Set Name
  {9c125d23-2ec6-4e76-92c5-8cbbe6c873d2}, !- Default Schedule Set Name
  ,                                       !- Standards Number of Stories
  ,                                       !- Standards Number of Above Ground Stories
  Outpatient;                             !- Standards Building Type

OS:LifeCycleCost:Parameters,
  {231cf8a0-f0e7-4251-a99f-11f0d464e661}, !- Handle
  FEMP,                                   !- Analysis Type
  ,                                       !- Discounting Convention
  ,                                       !- Inflation Approach
  ,                                       !- Real Discount Rate
  ,                                       !- Nominal Discount Rate
  ,                                       !- Inflation
  ,                                       !- Base Date Month
  ,                                       !- Base Date Year
  ,                                       !- Service Date Month
  ,                                       !- Service Date Year
  ,                                       !- Length of Study Period in Years
  ,                                       !- Tax Rate
  ,                                       !- Depreciation Method
  Yes;                                    !- Use NIST Fuel Escalation Rates

OS:Facility,
  {3ba8e45b-b833-44eb-a723-ea6c3946dc96}; !- Handle

OS:SpaceType,
  {36dccd55-0f7a-4a62-8c3e-57fa4a1bcea1}, !- Handle
  Outpatient|BlendCirc|DOE Ref 1980-2004|ASHRAE 169-2006-5A, !- Name
  {389944dd-c6c3-410c-ab2a-59f4983a88ef}, !- Default Construction Set Name
  ,                                       !- Default Schedule Set Name
  {8c0114f3-e552-437f-83ff-85e4dfd3a356}, !- Group Rendering Name
  {4896ae60-e555-43d1-8e1e-86b08270ac73}, !- Design Specification Outdoor Air Object Name
  Outpatient,                             !- Standards Building Type
  BlendCirc;                              !- Standards Space Type

OS:Rendering:Color,
  {8c0114f3-e552-437f-83ff-85e4dfd3a356}, !- Handle
  Rendering Color 1,                      !- Name
  169,                                    !- Rendering Red Value
  31,                                     !- Rendering Green Value
  31;                                     !- Rendering Blue Value

OS:SpaceType,
  {f2bd5dc6-43a0-41ba-b227-f93ce02dbfc4}, !- Handle
  Outpatient|BlendOff|DOE Ref 1980-2004|ASHRAE 169-2006-5A, !- Name
  {389944dd-c6c3-410c-ab2a-59f4983a88ef}, !- Default Construction Set Name
  ,                                       !- Default Schedule Set Name
  {88a99e20-778a-4e39-b62f-4829e25cd1b4}, !- Group Rendering Name
  {9182df5c-4f7a-4052-b3ce-e1aeb17403ef}, !- Design Specification Outdoor Air Object Name
  Outpatient,                             !- Standards Building Type
  BlendOff;                               !- Standards Space Type

OS:Rendering:Color,
  {88a99e20-778a-4e39-b62f-4829e25cd1b4}, !- Handle
  Rendering Color 2,                      !- Name
  120,                                    !- Rendering Red Value
  230,                                    !- Rendering Green Value
  199;                                    !- Rendering Blue Value

OS:SpaceType,
  {671cf861-e9ad-45e9-9d7b-a705502841ab}, !- Handle
  Outpatient|BlendPat|DOE Ref 1980-2004|ASHRAE 169-2006-5A, !- Name
  {389944dd-c6c3-410c-ab2a-59f4983a88ef}, !- Default Construction Set Name
  ,                                       !- Default Schedule Set Name
  {7cf0c673-ef8e-4da1-a761-a41fc8282b03}, !- Group Rendering Name
  {798dcbee-c96a-4424-bbd3-53e40b409c0b}, !- Design Specification Outdoor Air Object Name
  Outpatient,                             !- Standards Building Type
  BlendPat;                               !- Standards Space Type

OS:Rendering:Color,
  {7cf0c673-ef8e-4da1-a761-a41fc8282b03}, !- Handle
  Rendering Color 3,                      !- Name
  136,                                    !- Rendering Red Value
  78,                                     !- Rendering Green Value
  222;                                    !- Rendering Blue Value

OS:SpaceType,
  {8cd7a41d-4f51-44e9-b632-2501e309b243}, !- Handle
  Outpatient|BlendImg|DOE Ref 1980-2004|ASHRAE 169-2006-5A, !- Name
  {389944dd-c6c3-410c-ab2a-59f4983a88ef}, !- Default Construction Set Name
  ,                                       !- Default Schedule Set Name
  {c985bfa0-9058-4c77-894c-b4550bd55add}, !- Group Rendering Name
  {9a8a635b-2822-4fd5-88c1-815372600df6}, !- Design Specification Outdoor Air Object Name
  Outpatient,                             !- Standards Building Type
  BlendImg;                               !- Standards Space Type

OS:Rendering:Color,
  {c985bfa0-9058-4c77-894c-b4550bd55add}, !- Handle
  Rendering Color 4,                      !- Name
  169,                                    !- Rendering Red Value
  31,                                     !- Rendering Green Value
  159;                                    !- Rendering Blue Value

OS:SpaceType,
  {f7b5a4ac-6c05-47c9-8e1b-e07550bd1991}, !- Handle
  Outpatient|BlendMedStg|DOE Ref 1980-2004|ASHRAE 169-2006-5A, !- Name
  {389944dd-c6c3-410c-ab2a-59f4983a88ef}, !- Default Construction Set Name
  ,                                       !- Default Schedule Set Name
  {1fc30a84-97b8-4c86-8f5d-65ea8eeeffa2}, !- Group Rendering Name
  {abb09c09-fc8c-43e7-b40d-1b50440c7ee2}, !- Design Specification Outdoor Air Object Name
  Outpatient,                             !- Standards Building Type
  BlendMedStg;                            !- Standards Space Type

OS:Rendering:Color,
  {1fc30a84-97b8-4c86-8f5d-65ea8eeeffa2}, !- Handle
  Rendering Color 5,                      !- Name
  204,                                    !- Rendering Red Value
  120,                                    !- Rendering Green Value
  230;                                    !- Rendering Blue Value

OS:SpaceType,
  {d3e8940e-d006-4640-895b-00c16aec6853}, !- Handle
  Outpatient|BlendMisc|DOE Ref 1980-2004|ASHRAE 169-2006-5A, !- Name
  {389944dd-c6c3-410c-ab2a-59f4983a88ef}, !- Default Construction Set Name
  ,                                       !- Default Schedule Set Name
  {afc96274-f885-425f-9708-f66509d40e9d}, !- Group Rendering Name
  {415d4f7b-f9fc-4f5f-b19c-74d6ec5782b3}, !- Design Specification Outdoor Air Object Name
  Outpatient,                             !- Standards Building Type
  BlendMisc;                              !- Standards Space Type

OS:Rendering:Color,
  {afc96274-f885-425f-9708-f66509d40e9d}, !- Handle
  Rendering Color 6,                      !- Name
  120,                                    !- Rendering Red Value
  149,                                    !- Rendering Green Value
  230;                                    !- Rendering Blue Value

OS:Schedule:Ruleset,
  {ee666b60-c705-4968-a849-cbed3039c534}, !- Handle
  0400|2200|Outpatient|default|hoo,       !- Name
  {796a04c1-a1c4-41f0-86ec-d3b7d5f84c67}, !- Schedule Type Limits Name
  {053f6957-98fc-4c8b-9a79-c8e8399eca22}, !- Default Day Schedule Name
  {650eb4c1-be6b-46e4-a631-4002114c207d}, !- Summer Design Day Schedule Name
  {b865c240-2eb6-4608-8482-90f6a9f8f1fb}; !- Winter Design Day Schedule Name

OS:Schedule:Day,
  {053f6957-98fc-4c8b-9a79-c8e8399eca22}, !- Handle
  0400|2200|Outpatient|default|hoo Schedule Week Day, !- Name
  {796a04c1-a1c4-41f0-86ec-d3b7d5f84c67}, !- Schedule Type Limits Name
  ,                                       !- Interpolate to Timestep
  4,                                      !- Hour 1
  0,                                      !- Minute 1
  0,                                      !- Value Until Time 1
  22,                                     !- Hour 2
  0,                                      !- Minute 2
  1,                                      !- Value Until Time 2
  24,                                     !- Hour 3
  0,                                      !- Minute 3
  0;                                      !- Value Until Time 3

OS:Schedule:Day,
  {ce79ab14-7f0c-4979-ad42-5aeaa2f0ac05}, !- Handle
  Schedule Day 2,                         !- Name
  ,                                       !- Schedule Type Limits Name
  ,                                       !- Interpolate to Timestep
  24,                                     !- Hour 1
  0,                                      !- Minute 1
  0;                                      !- Value Until Time 1

OS:Schedule:Day,
  {b865c240-2eb6-4608-8482-90f6a9f8f1fb}, !- Handle
  0400|2200|Outpatient|default|hoo Winter Design Day, !- Name
  {796a04c1-a1c4-41f0-86ec-d3b7d5f84c67}, !- Schedule Type Limits Name
  ,                                       !- Interpolate to Timestep
  24,                                     !- Hour 1
  0,                                      !- Minute 1
  0;                                      !- Value Until Time 1

OS:Schedule:Day,
  {8628be8f-0a17-4078-a98a-9659c725a4fd}, !- Handle
  Schedule Day 3,                         !- Name
  ,                                       !- Schedule Type Limits Name
  ,                                       !- Interpolate to Timestep
  24,                                     !- Hour 1
  0,                                      !- Minute 1
  0;                                      !- Value Until Time 1

OS:Schedule:Day,
  {650eb4c1-be6b-46e4-a631-4002114c207d}, !- Handle
  0400|2200|Outpatient|default|hoo Summer Design Day, !- Name
  {796a04c1-a1c4-41f0-86ec-d3b7d5f84c67}, !- Schedule Type Limits Name
  ,                                       !- Interpolate to Timestep
  24,                                     !- Hour 1
  0,                                      !- Minute 1
  1;                                      !- Value Until Time 1

OS:DefaultScheduleSet,
  {9c125d23-2ec6-4e76-92c5-8cbbe6c873d2}, !- Handle
  Building Hours of Operation,            !- Name
  {ee666b60-c705-4968-a849-cbed3039c534}, !- Hours of Operation Schedule Name
  ,                                       !- Number of People Schedule Name
  ,                                       !- People Activity Level Schedule Name
  ,                                       !- Lighting Schedule Name
  ,                                       !- Electric Equipment Schedule Name
  ,                                       !- Gas Equipment Schedule Name
  ,                                       !- Hot Water Equipment Schedule Name
  ,                                       !- Infiltration Schedule Name
  ,                                       !- Steam Equipment Schedule Name
  ;                                       !- Other Equipment Schedule Name

OS:ScheduleTypeLimits,
  {796a04c1-a1c4-41f0-86ec-d3b7d5f84c67}, !- Handle
  OnOff,                                  !- Name
  0,                                      !- Lower Limit Value {BasedOnField A4}
  1,                                      !- Upper Limit Value {BasedOnField A4}
  Discrete,                               !- Numeric Type
  Availability;                           !- Unit Type

OS:Schedule:Ruleset,
  {27e0ef2f-d55e-4da7-8442-f429fd47edc7}, !- Handle
  0400|2200|Outpatient|default|htg_setpoint, !- Name
  {6e533420-6a09-4291-91a0-fd386f11251e}, !- Schedule Type Limits Name
  {4d880406-85b0-4622-bd2d-21d359c7c5b5}, !- Default Day Schedule Name
  {b765d931-384e-49eb-bf99-d412a1a70c37}, !- Summer Design Day Schedule Name
  {309b97c6-438f-4ccf-8130-15bead12c209}; !- Winter Design Day Schedule Name

OS:ScheduleTypeLimits,
  {6e533420-6a09-4291-91a0-fd386f11251e}, !- Handle
  Thermostat Heating Setpoint Schedule Type Limits, !- Name
  0,                                      !- Lower Limit Value {BasedOnField A4}
  100,                                    !- Upper Limit Value {BasedOnField A4}
  Continuous,                             !- Numeric Type
  Temperature;                            !- Unit Type

OS:Schedule:Day,
  {4d880406-85b0-4622-bd2d-21d359c7c5b5}, !- Handle
  0400|2200|Outpatient|default|htg_setpoint |default, !- Name
  {6e533420-6a09-4291-91a0-fd386f11251e}, !- Schedule Type Limits Name
  ,                                       !- Interpolate to Timestep
  5,                                      !- Hour 1
  0,                                      !- Minute 1
  18.3,                                   !- Value Until Time 1
  18,                                     !- Hour 2
  0,                                      !- Minute 2
  21.1,                                   !- Value Until Time 2
  24,                                     !- Hour 3
  0,                                      !- Minute 3
  18.3;                                   !- Value Until Time 3

OS:Schedule:Day,
  {b765d931-384e-49eb-bf99-d412a1a70c37}, !- Handle
  0400|2200|Outpatient|default|htg_setpoint Summer Design Day, !- Name
  {6e533420-6a09-4291-91a0-fd386f11251e}, !- Schedule Type Limits Name
  ,                                       !- Interpolate to Timestep
  5,                                      !- Hour 1
  0,                                      !- Minute 1
  18.3,                                   !- Value Until Time 1
  18,                                     !- Hour 2
  0,                                      !- Minute 2
  21.1,                                   !- Value Until Time 2
  24,                                     !- Hour 3
  0,                                      !- Minute 3
  18.3;                                   !- Value Until Time 3

OS:Schedule:Day,
  {309b97c6-438f-4ccf-8130-15bead12c209}, !- Handle
  0400|2200|Outpatient|default|htg_setpoint Winter Design Day, !- Name
  {6e533420-6a09-4291-91a0-fd386f11251e}, !- Schedule Type Limits Name
  ,                                       !- Interpolate to Timestep
  24,                                     !- Hour 1
  0,                                      !- Minute 1
  18.3;                                   !- Value Until Time 1

OS:Schedule:Rule,
  {53b57240-8819-4ac5-94f9-d1b4edb4abe3}, !- Handle
  0400|2200|Outpatient|default|htg_setpoint |1/1-12/31|Sat/Sun Rule, !- Name
  {27e0ef2f-d55e-4da7-8442-f429fd47edc7}, !- Schedule Ruleset Name
  0,                                      !- Rule Order
  {95bdc592-a4e8-4baf-bdad-27a20e23cd35}, !- Day Schedule Name
  Yes,                                    !- Apply Sunday
  ,                                       !- Apply Monday
  ,                                       !- Apply Tuesday
  ,                                       !- Apply Wednesday
  ,                                       !- Apply Thursday
  ,                                       !- Apply Friday
  Yes,                                    !- Apply Saturday
  ,                                       !- Apply Holiday
  DateRange,                              !- Date Specification Type
  1,                                      !- Start Month
  1,                                      !- Start Day
  12,                                     !- End Month
  31;                                     !- End Day

OS:Schedule:Day,
  {95bdc592-a4e8-4baf-bdad-27a20e23cd35}, !- Handle
  0400|2200|Outpatient|default|htg_setpoint |1/1-12/31|Sat/Sun, !- Name
  {6e533420-6a09-4291-91a0-fd386f11251e}, !- Schedule Type Limits Name
  ,                                       !- Interpolate to Timestep
  24,                                     !- Hour 1
  0,                                      !- Minute 1
  18.3;                                   !- Value Until Time 1

OS:Schedule:Ruleset,
  {c3c2df63-a591-4208-8504-aaf2de6a3857}, !- Handle
  0400|2200|Outpatient|default|thermal_ctrl, !- Name
  {fa57a883-d63f-4b7d-833f-80b5cd0f128a}, !- Schedule Type Limits Name
  {ec86dabb-459f-44de-a3fb-1846ede2fde7}, !- Default Day Schedule Name
  {73e851d7-650c-4c8d-bf4b-8ce49e75a810}, !- Summer Design Day Schedule Name
  {17417e27-002e-423f-8d73-e3ead44e75ef}; !- Winter Design Day Schedule Name

OS:ScheduleTypeLimits,
  {fa57a883-d63f-4b7d-833f-80b5cd0f128a}, !- Handle
  Dimensionless Schedule Type Limits,     !- Name
  ,                                       !- Lower Limit Value {BasedOnField A4}
  ,                                       !- Upper Limit Value {BasedOnField A4}
  Continuous,                             !- Numeric Type
  Dimensionless;                          !- Unit Type

OS:Schedule:Day,
  {ec86dabb-459f-44de-a3fb-1846ede2fde7}, !- Handle
  0400|2200|Outpatient|default|thermal_ctrl |default, !- Name
  {fa57a883-d63f-4b7d-833f-80b5cd0f128a}, !- Schedule Type Limits Name
  ,                                       !- Interpolate to Timestep
  24,                                     !- Hour 1
  0,                                      !- Minute 1
  4;                                      !- Value Until Time 1

OS:Schedule:Day,
  {73e851d7-650c-4c8d-bf4b-8ce49e75a810}, !- Handle
  0400|2200|Outpatient|default|thermal_ctrl Summer Design Day, !- Name
  {fa57a883-d63f-4b7d-833f-80b5cd0f128a}, !- Schedule Type Limits Name
  ,                                       !- Interpolate to Timestep
  24,                                     !- Hour 1
  0,                                      !- Minute 1
  4;                                      !- Value Until Time 1

OS:Schedule:Day,
  {17417e27-002e-423f-8d73-e3ead44e75ef}, !- Handle
  0400|2200|Outpatient|default|thermal_ctrl Winter Design Day, !- Name
  {fa57a883-d63f-4b7d-833f-80b5cd0f128a}, !- Schedule Type Limits Name
  ,                                       !- Interpolate to Timestep
  24,                                     !- Hour 1
  0,                                      !- Minute 1
  4;                                      !- Value Until Time 1

OS:Schedule:Ruleset,
  {b6982b68-15e3-4a92-b0fe-6d196e6322bb}, !- Handle
  0400|2200|Outpatient|default|activity,  !- Name
  {a6a691c5-554f-4685-b281-bfd8bc681c3c}, !- Schedule Type Limits Name
  {a4de0243-0b90-4174-ba4e-ed864048d1eb}, !- Default Day Schedule Name
  {c505d160-52f7-422b-9e01-299a1ad1b121}, !- Summer Design Day Schedule Name
  {064d3c83-adb7-45be-94b3-c578c9d5bb1f}; !- Winter Design Day Schedule Name

OS:ScheduleTypeLimits,
  {a6a691c5-554f-4685-b281-bfd8bc681c3c}, !- Handle
  People Activity Type Limits,            !- Name
  0,                                      !- Lower Limit Value {BasedOnField A4}
  ,                                       !- Upper Limit Value {BasedOnField A4}
  Continuous,                             !- Numeric Type
  ActivityLevel;                          !- Unit Type

OS:Schedule:Day,
  {a4de0243-0b90-4174-ba4e-ed864048d1eb}, !- Handle
  0400|2200|Outpatient|default|activity |default, !- Name
  {a6a691c5-554f-4685-b281-bfd8bc681c3c}, !- Schedule Type Limits Name
  ,                                       !- Interpolate to Timestep
  24,                                     !- Hour 1
  0,                                      !- Minute 1
  120;                                    !- Value Until Time 1

OS:Schedule:Day,
  {c505d160-52f7-422b-9e01-299a1ad1b121}, !- Handle
  0400|2200|Outpatient|default|activity Summer Design Day, !- Name
  {a6a691c5-554f-4685-b281-bfd8bc681c3c}, !- Schedule Type Limits Name
  ,                                       !- Interpolate to Timestep
  24,                                     !- Hour 1
  0,                                      !- Minute 1
  120;                                    !- Value Until Time 1

OS:Schedule:Day,
  {064d3c83-adb7-45be-94b3-c578c9d5bb1f}, !- Handle
  0400|2200|Outpatient|default|activity Winter Design Day, !- Name
  {a6a691c5-554f-4685-b281-bfd8bc681c3c}, !- Schedule Type Limits Name
  ,                                       !- Interpolate to Timestep
  24,                                     !- Hour 1
  0,                                      !- Minute 1
  120;                                    !- Value Until Time 1

OS:Schedule:Ruleset,
  {b0c405e1-0adb-46a7-99db-f3cf7600861b}, !- Handle
  0400|2200|Outpatient|OR|clg_setpoint,   !- Name
  {f0ec064a-903a-441b-85cd-bd67adc981c3}, !- Schedule Type Limits Name
  {b41839fe-5b74-4dd7-b449-a8aa1ad54003}, !- Default Day Schedule Name
  {84ecfbdb-f9f6-48f3-aba6-637de1d91c61}, !- Summer Design Day Schedule Name
  {e41d9101-986f-4b8e-8ef9-392732e4e857}; !- Winter Design Day Schedule Name

OS:ScheduleTypeLimits,
  {f0ec064a-903a-441b-85cd-bd67adc981c3}, !- Handle
  Thermostat Cooling Setpoint Schedule Type Limits, !- Name
  0,                                      !- Lower Limit Value {BasedOnField A4}
  100,                                    !- Upper Limit Value {BasedOnField A4}
  Continuous,                             !- Numeric Type
  Temperature;                            !- Unit Type

OS:Schedule:Day,
  {b41839fe-5b74-4dd7-b449-a8aa1ad54003}, !- Handle
  0400|2200|Outpatient|OR|clg_setpoint |default, !- Name
  {f0ec064a-903a-441b-85cd-bd67adc981c3}, !- Schedule Type Limits Name
  ,                                       !- Interpolate to Timestep
  6,                                      !- Hour 1
  0,                                      !- Minute 1
  22.2,                                   !- Value Until Time 1
  17,                                     !- Hour 2
  0,                                      !- Minute 2
  18.3,                                   !- Value Until Time 2
  24,                                     !- Hour 3
  0,                                      !- Minute 3
  22.2;                                   !- Value Until Time 3

OS:Schedule:Day,
  {84ecfbdb-f9f6-48f3-aba6-637de1d91c61}, !- Handle
  0400|2200|Outpatient|OR|clg_setpoint Summer Design Day, !- Name
  {f0ec064a-903a-441b-85cd-bd67adc981c3}, !- Schedule Type Limits Name
  ,                                       !- Interpolate to Timestep
  24,                                     !- Hour 1
  0,                                      !- Minute 1
  22.2;                                   !- Value Until Time 1

OS:Schedule:Day,
  {e41d9101-986f-4b8e-8ef9-392732e4e857}, !- Handle
  0400|2200|Outpatient|OR|clg_setpoint Winter Design Day, !- Name
  {f0ec064a-903a-441b-85cd-bd67adc981c3}, !- Schedule Type Limits Name
  ,                                       !- Interpolate to Timestep
  6,                                      !- Hour 1
  0,                                      !- Minute 1
  22.2,                                   !- Value Until Time 1
  17,                                     !- Hour 2
  0,                                      !- Minute 2
  18.3,                                   !- Value Until Time 2
  24,                                     !- Hour 3
  0,                                      !- Minute 3
  22.2;                                   !- Value Until Time 3

OS:Schedule:Ruleset,
  {2b19d667-94ec-4659-96c8-c12dbbe7634c}, !- Handle
  0400|2200|Outpatient|default|lighting,  !- Name
  {0f021cc4-b27c-414f-9aeb-9c906c3936ef}, !- Schedule Type Limits Name
  {90bb61e0-c87c-40dc-aeaf-546a4d92660e}, !- Default Day Schedule Name
  {0ec5605d-67f5-4f51-a3f7-c7e02de68d48}, !- Summer Design Day Schedule Name
  {97cbda4c-2165-4d1c-bbb2-795bb61c7381}; !- Winter Design Day Schedule Name

OS:ScheduleTypeLimits,
  {0f021cc4-b27c-414f-9aeb-9c906c3936ef}, !- Handle
  Lights Schedule Type Limits,            !- Name
  0,                                      !- Lower Limit Value {BasedOnField A4}
  1,                                      !- Upper Limit Value {BasedOnField A4}
  Continuous,                             !- Numeric Type
  Dimensionless;                          !- Unit Type

OS:Schedule:Day,
  {90bb61e0-c87c-40dc-aeaf-546a4d92660e}, !- Handle
  0400|2200|Outpatient|default|lighting |default, !- Name
  {0f021cc4-b27c-414f-9aeb-9c906c3936ef}, !- Schedule Type Limits Name
  ,                                       !- Interpolate to Timestep
  4,                                      !- Hour 1
  0,                                      !- Minute 1
  0.1,                                    !- Value Until Time 1
  6,                                      !- Hour 2
  0,                                      !- Minute 2
  0.3,                                    !- Value Until Time 2
  7,                                      !- Hour 3