
OS:Version,
  {1f011af5-da26-4a3f-ad17-033537638c22}, !- Handle
  1.5.5;                                  !- Version Identifier

OS:ClimateZones,
  {135edfab-17e7-40db-a436-27d385a8cd6d}, !- Handle
  ,                                       !- Active Institution
  ,                                       !- Active Year
  ASHRAE,                                 !- Climate Zone Institution Name 1
  ANSI/ASHRAE Standard 169,               !- Climate Zone Document Name 1
  2006,                                   !- Climate Zone Document Year 1
  ,                                       !- Climate Zone Value 1
  CEC,                                    !- Climate Zone Institution Name 2
  California Climate Zone Descriptions,   !- Climate Zone Document Name 2
  1995,                                   !- Climate Zone Document Year 2
  ;                                       !- Climate Zone Value 2

OS:YearDescription,
  {513d8dda-86cb-442a-b01c-1f7f0e0ac70e}; !- Handle

OS:RadianceParameters,
  {270a96f1-3c86-4b75-a667-cdf22790e2c8}, !- Handle
  1,                                      !- Accumulated Rays per Record
  0,                                      !- Direct Threshold
  1,                                      !- Direct Certainty
  1,                                      !- Direct Jitter
  1,                                      !- Direct Pretest
  6,                                      !- Ambient Bounces VMX
  2,                                      !- Ambient Bounces DMX
  4050,                                   !- Ambient Divisions VMX
  512,                                    !- Ambient Divisions DMX
  256,                                    !- Ambient Supersamples
  0.001,                                  !- Limit Weight VMX
  0.001,                                  !- Limit Weight DMX
  500,                                    !- Klems Sampling Density
  146;                                    !- Sky Discretization Resolution

OS:SimulationControl,
  {2c487a4c-bac9-4ac5-b669-1e49d9da7c2b}, !- Handle
  ,                                       !- Do Zone Sizing Calculation
  ,                                       !- Do System Sizing Calculation
  ,                                       !- Do Plant Sizing Calculation
  No,                                     !- Run Simulation for Sizing Periods
  ,                                       !- Run Simulation for Weather File Run Periods
  0.04,                                   !- Loads Convergence Tolerance Value
  ,                                       !- Temperature Convergence Tolerance Value {deltaC}
  ,                                       !- Solar Distribution
  ,                                       !- Maximum Number of Warmup Days
  2;                                      !- Minimum Number of Warmup Days

OS:Sizing:Parameters,
  {dde5af6f-7923-4600-a28a-7556673a0266}, !- Handle
  1.25,                                   !- Heating Sizing Factor
  1.15;                                   !- Cooling Sizing Factor

OS:ProgramControl,
  {05027a99-f2b3-4aeb-afc6-1425fbb4371d}; !- Handle

OS:Timestep,
  {4ebc9f1e-4707-402e-9844-67eb1ffbd522}, !- Handle
  2;                                      !- Number of Timesteps per Hour

OS:OutputControl:ReportingTolerances,
  {65797aa2-06a9-45fe-b69d-bc6e060399d3}; !- Handle

OS:ConvergenceLimits,
  {9fc11aba-8822-4f3d-970c-46391ba4040d}; !- Handle

OS:ShadowCalculation,
  {ca758bea-4416-4626-9bba-3d8795c79bd6}, !- Handle
  7,                                      !- Calculation Frequency
  15000;                                  !- Maximum Figures in Shadow Overlap Calculations

OS:SurfaceConvectionAlgorithm:Inside,
  {aaabfc36-718a-4ab0-b622-f186ebb45230}, !- Handle
  TARP;                                   !- Algorithm

OS:SurfaceConvectionAlgorithm:Outside,
  {9a0a9f6f-4bbd-4b12-a121-9492a1fcd7d6}, !- Handle
  DOE-2;                                  !- Algorithm

OS:HeatBalanceAlgorithm,
  {9d93e563-e1e0-46d7-9e39-d1c8aceb7212}, !- Handle
  ConductionTransferFunction,             !- Algorithm
  200;                                    !- Surface Temperature Upper Limit {F}

OS:ZoneAirHeatBalanceAlgorithm,
  {8520d93e-310f-4696-9bcd-36228bfdd743}, !- Handle
  AnalyticalSolution;                     !- Algorithm

OS:ZoneAirContaminantBalance,
  {eb5fc3ae-fb22-4160-8fcb-3e3b22b000d3}; !- Handle

OS:ZoneCapacitanceMultiplier:ResearchSpecial,
  {4020ce4f-5a7a-4849-8028-8305d7b751b1}, !- Handle
  ,                                       !- Temperature Capacity Multiplier
  ,                                       !- Humidity Capacity Multiplier
  ;                                       !- Carbon Dioxide Capacity Multiplier

OS:RunPeriod,
  {28df894d-6af9-4fb8-8f56-df1753344aa3}, !- Handle
  Run Period 1,                           !- Name
  1,                                      !- Begin Month
  1,                                      !- Begin Day of Month
  12,                                     !- End Month
  31,                                     !- End Day of Month
  ,                                       !- Use Weather File Holidays and Special Days
  ,                                       !- Use Weather File Daylight Saving Period
  ,                                       !- Apply Weekend Holiday Rule
  ,                                       !- Use Weather File Rain Indicators
  ,                                       !- Use Weather File Snow Indicators
  ;                                       !- Number of Times Runperiod to be Repeated

OS:Building,
  {bf305633-c5a1-4881-9edf-ca5e1a8e1274}, !- Handle
  Building 1,                             !- Name
  ,                                       !- Building Sector Type
  ,                                       !- North Axis {deg}
  ,                                       !- Nominal Floor to Floor Height {m}
  ,                                       !- Space Type Name
  ,                                       !- Default Construction Set Name
  {6d315b67-d35f-4e86-b7ee-0aa17edc44a5}, !- Default Schedule Set Name
  ,                                       !- Standards Number of Stories
  ,                                       !- Standards Number of Above Ground Stories
  Outpatient;                             !- Standards Building Type

OS:LifeCycleCost:Parameters,
  {231cf8a0-f0e7-4251-a99f-11f0d464e661}, !- Handle
  FEMP,                                   !- Analysis Type
  ,                                       !- Discounting Convention
  ,                                       !- Inflation Approach
  ,                                       !- Real Discount Rate
  ,                                       !- Nominal Discount Rate
  ,                                       !- Inflation
  ,                                       !- Base Date Month
  ,                                       !- Base Date Year
  ,                                       !- Service Date Month
  ,                                       !- Service Date Year
  ,                                       !- Length of Study Period in Years
  ,                                       !- Tax Rate
  ,                                       !- Depreciation Method
  Yes;                                    !- Use NIST Fuel Escalation Rates

OS:Facility,
  {3ba8e45b-b833-44eb-a723-ea6c3946dc96}; !- Handle

OS:SpaceType,
  {8c17476f-3b7e-4ff6-876f-fb562ea5dcdf}, !- Handle
  Outpatient|BlendCirc|DOE Ref 2004|ASHRAE 169-2006-5A, !- Name
  {c2741041-ffa5-446f-bba9-6af2481410fc}, !- Default Construction Set Name
  ,                                       !- Default Schedule Set Name
  {ff3acb01-cd23-45ce-afaa-fcb888d7f950}, !- Group Rendering Name
  {b3653684-67c6-4563-9dbd-e61d02263ab2}, !- Design Specification Outdoor Air Object Name
  Outpatient,                             !- Standards Building Type
  BlendCirc;                              !- Standards Space Type

OS:Rendering:Color,
  {ff3acb01-cd23-45ce-afaa-fcb888d7f950}, !- Handle
  Rendering Color 1,                      !- Name
  169,                                    !- Rendering Red Value
  31,                                     !- Rendering Green Value
  31;                                     !- Rendering Blue Value

OS:SpaceType,
  {2dc3cea1-1f02-48d5-a20a-c88f9756e8af}, !- Handle
  Outpatient|BlendOff|DOE Ref 2004|ASHRAE 169-2006-5A, !- Name
  {c2741041-ffa5-446f-bba9-6af2481410fc}, !- Default Construction Set Name
  ,                                       !- Default Schedule Set Name
  {d828c324-6580-40fd-86d5-d59c631aa469}, !- Group Rendering Name
  {dd086444-2086-4a21-bea5-29a8ae3fe3fe}, !- Design Specification Outdoor Air Object Name
  Outpatient,                             !- Standards Building Type
  BlendOff;                               !- Standards Space Type

OS:Rendering:Color,
  {d828c324-6580-40fd-86d5-d59c631aa469}, !- Handle
  Rendering Color 2,                      !- Name
  120,                                    !- Rendering Red Value
  230,                                    !- Rendering Green Value
  199;                                    !- Rendering Blue Value

OS:SpaceType,
  {2d87813f-8f6e-4f72-95b1-04984df480a7}, !- Handle
  Outpatient|BlendPat|DOE Ref 2004|ASHRAE 169-2006-5A, !- Name
  {c2741041-ffa5-446f-bba9-6af2481410fc}, !- Default Construction Set Name
  ,                                       !- Default Schedule Set Name
  {bde5204c-79ac-49c1-a73c-b1711fa4ada9}, !- Group Rendering Name
  {830633dc-9310-49e8-960f-69dcdfca8929}, !- Design Specification Outdoor Air Object Name
  Outpatient,                             !- Standards Building Type
  BlendPat;                               !- Standards Space Type

OS:Rendering:Color,
  {bde5204c-79ac-49c1-a73c-b1711fa4ada9}, !- Handle
  Rendering Color 3,                      !- Name
  136,                                    !- Rendering Red Value
  78,                                     !- Rendering Green Value
  222;                                    !- Rendering Blue Value

OS:SpaceType,
  {27391366-2fd9-46af-8e59-4d815852f30e}, !- Handle
  Outpatient|BlendImg|DOE Ref 2004|ASHRAE 169-2006-5A, !- Name
  {c2741041-ffa5-446f-bba9-6af2481410fc}, !- Default Construction Set Name
  ,                                       !- Default Schedule Set Name
  {407d0a3c-22bb-4b00-a5bd-380522c962db}, !- Group Rendering Name
  {9b762e6a-255e-44e3-af01-074b1de062bb}, !- Design Specification Outdoor Air Object Name
  Outpatient,                             !- Standards Building Type
  BlendImg;                               !- Standards Space Type

OS:Rendering:Color,
  {407d0a3c-22bb-4b00-a5bd-380522c962db}, !- Handle
  Rendering Color 4,                      !- Name
  169,                                    !- Rendering Red Value
  31,                                     !- Rendering Green Value
  159;                                    !- Rendering Blue Value

OS:SpaceType,
  {255f499a-7fda-4f91-929a-436c88003bc2}, !- Handle
  Outpatient|BlendMedStg|DOE Ref 2004|ASHRAE 169-2006-5A, !- Name
  {c2741041-ffa5-446f-bba9-6af2481410fc}, !- Default Construction Set Name
  ,                                       !- Default Schedule Set Name
  {137c2a8f-1141-4fc1-bfa9-093585c03eee}, !- Group Rendering Name
  {f6695663-f5f1-4ef8-bbdb-31162208325f}, !- Design Specification Outdoor Air Object Name
  Outpatient,                             !- Standards Building Type
  BlendMedStg;                            !- Standards Space Type

OS:Rendering:Color,
  {137c2a8f-1141-4fc1-bfa9-093585c03eee}, !- Handle
  Rendering Color 5,                      !- Name
  204,                                    !- Rendering Red Value
  120,                                    !- Rendering Green Value
  230;                                    !- Rendering Blue Value

OS:SpaceType,
  {84c831ed-eca0-4bce-a268-ca2fa9530f6b}, !- Handle
  Outpatient|BlendMisc|DOE Ref 2004|ASHRAE 169-2006-5A, !- Name
  {c2741041-ffa5-446f-bba9-6af2481410fc}, !- Default Construction Set Name
  ,                                       !- Default Schedule Set Name
  {a9186511-6a0f-4ffb-83ec-2c8e55661e4d}, !- Group Rendering Name
  {28992e11-af43-4786-8c81-a7484de1539f}, !- Design Specification Outdoor Air Object Name
  Outpatient,                             !- Standards Building Type
  BlendMisc;                              !- Standards Space Type

OS:Rendering:Color,
  {a9186511-6a0f-4ffb-83ec-2c8e55661e4d}, !- Handle
  Rendering Color 6,                      !- Name
  120,                                    !- Rendering Red Value
  149,                                    !- Rendering Green Value
  230;                                    !- Rendering Blue Value

OS:Schedule:Ruleset,
  {6920d078-f663-4e16-ab71-74625616d2c7}, !- Handle
  0400|2200|Outpatient|default|hoo,       !- Name
  {5f970c64-7203-4a15-87cc-e3c20ad47be1}, !- Schedule Type Limits Name
  {e14cf753-da5e-4a03-82e4-22c24b7553ce}, !- Default Day Schedule Name
  {36b9f869-662d-4def-918d-5e2e8f4c8e4a}, !- Summer Design Day Schedule Name
  {b053053e-cd2e-4c61-86dc-45f7a128b154}; !- Winter Design Day Schedule Name

OS:Schedule:Day,
  {e14cf753-da5e-4a03-82e4-22c24b7553ce}, !- Handle
  0400|2200|Outpatient|default|hoo Schedule Week Day, !- Name
  {5f970c64-7203-4a15-87cc-e3c20ad47be1}, !- Schedule Type Limits Name
  ,                                       !- Interpolate to Timestep
  4,                                      !- Hour 1
  0,                                      !- Minute 1
  0,                                      !- Value Until Time 1
  22,                                     !- Hour 2
  0,                                      !- Minute 2
  1,                                      !- Value Until Time 2
  24,                                     !- Hour 3
  0,                                      !- Minute 3
  0;                                      !- Value Until Time 3

OS:Schedule:Day,
  {22b241cf-41bb-4689-bc88-dae42e9283e2}, !- Handle
  Schedule Day 2,                         !- Name
  ,                                       !- Schedule Type Limits Name
  ,                                       !- Interpolate to Timestep
  24,                                     !- Hour 1
  0,                                      !- Minute 1
  0;                                      !- Value Until Time 1

OS:Schedule:Day,
  {b053053e-cd2e-4c61-86dc-45f7a128b154}, !- Handle
  0400|2200|Outpatient|default|hoo Winter Design Day, !- Name
  {5f970c64-7203-4a15-87cc-e3c20ad47be1}, !- Schedule Type Limits Name
  ,                                       !- Interpolate to Timestep
  24,                                     !- Hour 1
  0,                                      !- Minute 1
  0;                                      !- Value Until Time 1

OS:Schedule:Day,
  {e293244f-efd8-43e3-aa4d-691e50bbd597}, !- Handle
  Schedule Day 3,                         !- Name
  ,                                       !- Schedule Type Limits Name
  ,                                       !- Interpolate to Timestep
  24,                                     !- Hour 1
  0,                                      !- Minute 1
  0;                                      !- Value Until Time 1

OS:Schedule:Day,
  {36b9f869-662d-4def-918d-5e2e8f4c8e4a}, !- Handle
  0400|2200|Outpatient|default|hoo Summer Design Day, !- Name
  {5f970c64-7203-4a15-87cc-e3c20ad47be1}, !- Schedule Type Limits Name
  ,                                       !- Interpolate to Timestep
  24,                                     !- Hour 1
  0,                                      !- Minute 1
  1;                                      !- Value Until Time 1

OS:DefaultScheduleSet,
  {6d315b67-d35f-4e86-b7ee-0aa17edc44a5}, !- Handle
  Building Hours of Operation,            !- Name
  {6920d078-f663-4e16-ab71-74625616d2c7}, !- Hours of Operation Schedule Name
  ,                                       !- Number of People Schedule Name
  ,                                       !- People Activity Level Schedule Name
  ,                                       !- Lighting Schedule Name
  ,                                       !- Electric Equipment Schedule Name
  ,                                       !- Gas Equipment Schedule Name
  ,                                       !- Hot Water Equipment Schedule Name
  ,                                       !- Infiltration Schedule Name
  ,                                       !- Steam Equipment Schedule Name
  ;                                       !- Other Equipment Schedule Name

OS:ScheduleTypeLimits,
  {5f970c64-7203-4a15-87cc-e3c20ad47be1}, !- Handle
  OnOff,                                  !- Name
  0,                                      !- Lower Limit Value {BasedOnField A4}
  1,                                      !- Upper Limit Value {BasedOnField A4}
  Discrete,                               !- Numeric Type
  Availability;                           !- Unit Type

OS:Schedule:Ruleset,
  {1043c3a6-812a-4d52-a3ea-e6b12e8beee0}, !- Handle
  0400|2200|Outpatient|default|htg_setpoint, !- Name
  {264064d7-4f7b-4edf-a499-358a583a9b08}, !- Schedule Type Limits Name
  {0b116472-1c25-4470-af4c-af70e235dbd3}, !- Default Day Schedule Name
  {a89a5a62-bb40-4274-b277-58e501af843b}, !- Summer Design Day Schedule Name
  {c191a16d-1d27-449f-b65b-4dcc97cd6f63}; !- Winter Design Day Schedule Name

OS:ScheduleTypeLimits,
  {264064d7-4f7b-4edf-a499-358a583a9b08}, !- Handle
  Thermostat Heating Setpoint Schedule Type Limits, !- Name
  0,                                      !- Lower Limit Value {BasedOnField A4}
  100,                                    !- Upper Limit Value {BasedOnField A4}
  Continuous,                             !- Numeric Type
  Temperature;                            !- Unit Type

OS:Schedule:Day,
  {0b116472-1c25-4470-af4c-af70e235dbd3}, !- Handle
  0400|2200|Outpatient|default|htg_setpoint |default, !- Name
  {264064d7-4f7b-4edf-a499-358a583a9b08}, !- Schedule Type Limits Name
  ,                                       !- Interpolate to Timestep
  5,                                      !- Hour 1
  0,                                      !- Minute 1
  18.3,                                   !- Value Until Time 1
  18,                                     !- Hour 2
  0,                                      !- Minute 2
  21.1,                                   !- Value Until Time 2
  24,                                     !- Hour 3
  0,                                      !- Minute 3
  18.3;                                   !- Value Until Time 3

OS:Schedule:Day,
  {a89a5a62-bb40-4274-b277-58e501af843b}, !- Handle
  0400|2200|Outpatient|default|htg_setpoint Summer Design Day, !- Name
  {264064d7-4f7b-4edf-a499-358a583a9b08}, !- Schedule Type Limits Name
  ,                                       !- Interpolate to Timestep
  5,                                      !- Hour 1
  0,                                      !- Minute 1
  18.3,                                   !- Value Until Time 1
  18,                                     !- Hour 2
  0,                                      !- Minute 2
  21.1,                                   !- Value Until Time 2
  24,                                     !- Hour 3
  0,                                      !- Minute 3
  18.3;                                   !- Value Until Time 3

OS:Schedule:Day,
  {c191a16d-1d27-449f-b65b-4dcc97cd6f63}, !- Handle
  0400|2200|Outpatient|default|htg_setpoint Winter Design Day, !- Name
  {264064d7-4f7b-4edf-a499-358a583a9b08}, !- Schedule Type Limits Name
  ,                                       !- Interpolate to Timestep
  24,                                     !- Hour 1
  0,                                      !- Minute 1
  18.3;                                   !- Value Until Time 1

OS:Schedule:Rule,
  {9162b371-4216-441c-8810-9f7a21233e89}, !- Handle
  0400|2200|Outpatient|default|htg_setpoint |1/1-12/31|Sat/Sun Rule, !- Name
  {1043c3a6-812a-4d52-a3ea-e6b12e8beee0}, !- Schedule Ruleset Name
  0,                                      !- Rule Order
  {5ca8d570-a4d1-46d5-9490-c8436e9f5532}, !- Day Schedule Name
  Yes,                                    !- Apply Sunday
  ,                                       !- Apply Monday
  ,                                       !- Apply Tuesday
  ,                                       !- Apply Wednesday
  ,                                       !- Apply Thursday
  ,                                       !- Apply Friday
  Yes,                                    !- Apply Saturday
  ,                                       !- Apply Holiday
  DateRange,                              !- Date Specification Type
  1,                                      !- Start Month
  1,                                      !- Start Day
  12,                                     !- End Month
  31;                                     !- End Day

OS:Schedule:Day,
  {5ca8d570-a4d1-46d5-9490-c8436e9f5532}, !- Handle
  0400|2200|Outpatient|default|htg_setpoint |1/1-12/31|Sat/Sun, !- Name
  {264064d7-4f7b-4edf-a499-358a583a9b08}, !- Schedule Type Limits Name
  ,                                       !- Interpolate to Timestep
  24,                                     !- Hour 1
  0,                                      !- Minute 1
  18.3;                                   !- Value Until Time 1

OS:Schedule:Ruleset,
  {d322aa82-3d5d-4d82-8822-8847f70d55b1}, !- Handle
  0400|2200|Outpatient|default|thermal_ctrl, !- Name
  {93c564c8-ba31-4d4e-9609-f4dde4e9ea7f}, !- Schedule Type Limits Name
  {82935f61-882e-431d-802d-acd0af36a13c}, !- Default Day Schedule Name
  {e450e635-c7c4-4284-8bae-fb22db02c4a1}, !- Summer Design Day Schedule Name
  {6e8478d3-5686-4b58-9ee9-0aa37a3d57de}; !- Winter Design Day Schedule Name

OS:ScheduleTypeLimits,
  {93c564c8-ba31-4d4e-9609-f4dde4e9ea7f}, !- Handle
  Dimensionless Schedule Type Limits,     !- Name
  ,                                       !- Lower Limit Value {BasedOnField A4}
  ,                                       !- Upper Limit Value {BasedOnField A4}
  Continuous,                             !- Numeric Type
  Dimensionless;                          !- Unit Type

OS:Schedule:Day,
  {82935f61-882e-431d-802d-acd0af36a13c}, !- Handle
  0400|2200|Outpatient|default|thermal_ctrl |default, !- Name
  {93c564c8-ba31-4d4e-9609-f4dde4e9ea7f}, !- Schedule Type Limits Name
  ,                                       !- Interpolate to Timestep
  24,                                     !- Hour 1
  0,                                      !- Minute 1
  4;                                      !- Value Until Time 1

OS:Schedule:Day,
  {e450e635-c7c4-4284-8bae-fb22db02c4a1}, !- Handle
  0400|2200|Outpatient|default|thermal_ctrl Summer Design Day, !- Name
  {93c564c8-ba31-4d4e-9609-f4dde4e9ea7f}, !- Schedule Type Limits Name
  ,                                       !- Interpolate to Timestep
  24,                                     !- Hour 1
  0,                                      !- Minute 1
  4;                                      !- Value Until Time 1

OS:Schedule:Day,
  {6e8478d3-5686-4b58-9ee9-0aa37a3d57de}, !- Handle
  0400|2200|Outpatient|default|thermal_ctrl Winter Design Day, !- Name
  {93c564c8-ba31-4d4e-9609-f4dde4e9ea7f}, !- Schedule Type Limits Name
  ,                                       !- Interpolate to Timestep
  24,                                     !- Hour 1
  0,                                      !- Minute 1
  4;                                      !- Value Until Time 1

OS:Schedule:Ruleset,
  {94b44594-7d29-4667-ad43-5bd8efc85d00}, !- Handle
  0400|2200|Outpatient|default|activity,  !- Name
  {1d125391-fc07-42d3-a9d3-bcbc8efc8e18}, !- Schedule Type Limits Name
  {97b7bd62-71a1-4f0b-88b8-b97576da38c5}, !- Default Day Schedule Name
  {3743edb5-e7bb-4ca8-9a29-777ea351d10a}, !- Summer Design Day Schedule Name
  {ec949bbc-ecec-4734-975c-00feaf9a0ba8}; !- Winter Design Day Schedule Name

OS:ScheduleTypeLimits,
  {1d125391-fc07-42d3-a9d3-bcbc8efc8e18}, !- Handle
  People Activity Type Limits,            !- Name
  0,                                      !- Lower Limit Value {BasedOnField A4}
  ,                                       !- Upper Limit Value {BasedOnField A4}
  Continuous,                             !- Numeric Type
  ActivityLevel;                          !- Unit Type

OS:Schedule:Day,
  {97b7bd62-71a1-4f0b-88b8-b97576da38c5}, !- Handle
  0400|2200|Outpatient|default|activity |default, !- Name
  {1d125391-fc07-42d3-a9d3-bcbc8efc8e18}, !- Schedule Type Limits Name
  ,                                       !- Interpolate to Timestep
  24,                                     !- Hour 1
  0,                                      !- Minute 1
  120;                                    !- Value Until Time 1

OS:Schedule:Day,
  {3743edb5-e7bb-4ca8-9a29-777ea351d10a}, !- Handle
  0400|2200|Outpatient|default|activity Summer Design Day, !- Name
  {1d125391-fc07-42d3-a9d3-bcbc8efc8e18}, !- Schedule Type Limits Name
  ,                                       !- Interpolate to Timestep
  24,                                     !- Hour 1
  0,                                      !- Minute 1
  120;                                    !- Value Until Time 1

OS:Schedule:Day,
  {ec949bbc-ecec-4734-975c-00feaf9a0ba8}, !- Handle
  0400|2200|Outpatient|default|activity Winter Design Day, !- Name
  {1d125391-fc07-42d3-a9d3-bcbc8efc8e18}, !- Schedule Type Limits Name
  ,                                       !- Interpolate to Timestep
  24,                                     !- Hour 1
  0,                                      !- Minute 1
  120;                                    !- Value Until Time 1

OS:Schedule:Ruleset,
  {7e6dbbc6-2673-474d-812c-5b597077e4f5}, !- Handle
  0400|2200|Outpatient|OR|clg_setpoint,   !- Name
  {ffa20746-9ab6-4c62-926e-30cee1e68217}, !- Schedule Type Limits Name
  {ed778f42-994e-43d8-b442-92fdcbaed4ba}, !- Default Day Schedule Name
  {1a8bc10e-6023-4d53-8e92-6e7b2d9a2f21}, !- Summer Design Day Schedule Name
  {0c1a757f-54e2-4e7f-98b9-ea6082fcf18e}; !- Winter Design Day Schedule Name

OS:ScheduleTypeLimits,
  {ffa20746-9ab6-4c62-926e-30cee1e68217}, !- Handle
  Thermostat Cooling Setpoint Schedule Type Limits, !- Name
  0,                                      !- Lower Limit Value {BasedOnField A4}
  100,                                    !- Upper Limit Value {BasedOnField A4}
  Continuous,                             !- Numeric Type
  Temperature;                            !- Unit Type

OS:Schedule:Day,
  {ed778f42-994e-43d8-b442-92fdcbaed4ba}, !- Handle
  0400|2200|Outpatient|OR|clg_setpoint |default, !- Name
  {ffa20746-9ab6-4c62-926e-30cee1e68217}, !- Schedule Type Limits Name
  ,                                       !- Interpolate to Timestep
  6,                                      !- Hour 1
  0,                                      !- Minute 1
  22.2,                                   !- Value Until Time 1
  17,                                     !- Hour 2
  0,                                      !- Minute 2
  18.3,                                   !- Value Until Time 2
  24,                                     !- Hour 3
  0,                                      !- Minute 3
  22.2;                                   !- Value Until Time 3

OS:Schedule:Day,
  {1a8bc10e-6023-4d53-8e92-6e7b2d9a2f21}, !- Handle
  0400|2200|Outpatient|OR|clg_setpoint Summer Design Day, !- Name
  {ffa20746-9ab6-4c62-926e-30cee1e68217}, !- Schedule Type Limits Name
  ,                                       !- Interpolate to Timestep
  24,                                     !- Hour 1
  0,                                      !- Minute 1
  22.2;                                   !- Value Until Time 1

OS:Schedule:Day,
  {0c1a757f-54e2-4e7f-98b9-ea6082fcf18e}, !- Handle
  0400|2200|Outpatient|OR|clg_setpoint Winter Design Day, !- Name
  {ffa20746-9ab6-4c62-926e-30cee1e68217}, !- Schedule Type Limits Name
  ,                                       !- Interpolate to Timestep
  6,                                      !- Hour 1
  0,                                      !- Minute 1
  22.2,                                   !- Value Until Time 1
  17,                                     !- Hour 2
  0,                                      !- Minute 2
  18.3,                                   !- Value Until Time 2
  24,                                     !- Hour 3
  0,                                      !- Minute 3
  22.2;                                   !- Value Until Time 3

OS:Schedule:Ruleset,
  {b66ee194-6831-42c2-8796-03aab0a0c72b}, !- Handle
  0400|2200|Outpatient|default|lighting,  !- Name
  {84954463-6abb-44e4-bebb-baddd7da7711}, !- Schedule Type Limits Name
  {aa128288-747a-4888-acde-a92e9e8084b0}, !- Default Day Schedule Name
  {c8ee625b-cb83-49ad-89b3-50d1f96432be}, !- Summer Design Day Schedule Name
  {a09eba3e-fffa-4233-9a69-484c02069ef6}; !- Winter Design Day Schedule Name

OS:ScheduleTypeLimits,
  {84954463-6abb-44e4-bebb-baddd7da7711}, !- Handle
  Lights Schedule Type Limits,            !- Name
  0,                                      !- Lower Limit Value {BasedOnField A4}
  1,                                      !- Upper Limit Value {BasedOnField A4}
  Continuous,                             !- Numeric Type
  Dimensionless;                          !- Unit Type

OS:Schedule:Day,
  {aa128288-747a-4888-acde-a92e9e8084b0}, !- Handle
  0400|2200|Outpatient|default|lighting |default, !- Name
  {84954463-6abb-44e4-bebb-baddd7da7711}, !- Schedule Type Limits Name
  ,                                       !- Interpolate to Timestep
  4,                                      !- Hour 1
  0,                                      !- Minute 1
  0.1,                                    !- Value Until Time 1
  6,                                      !- Hour 2
  0,                                      !- Minute 2
  0.3,                                    !- Value Until Time 2
  7,                                      !- Hour 3