
OS:Version,
  {45217bed-f8c0-4cb8-a3d4-28df5aabc855}, !- Handle
  1.5.5;                                  !- Version Identifier

OS:ClimateZones,
  {135edfab-17e7-40db-a436-27d385a8cd6d}, !- Handle
  ,                                       !- Active Institution
  ,                                       !- Active Year
  ASHRAE,                                 !- Climate Zone Institution Name 1
  ANSI/ASHRAE Standard 169,               !- Climate Zone Document Name 1
  2006,                                   !- Climate Zone Document Year 1
  ,                                       !- Climate Zone Value 1
  CEC,                                    !- Climate Zone Institution Name 2
  California Climate Zone Descriptions,   !- Climate Zone Document Name 2
  1995,                                   !- Climate Zone Document Year 2
  ;                                       !- Climate Zone Value 2

OS:YearDescription,
  {513d8dda-86cb-442a-b01c-1f7f0e0ac70e}; !- Handle

OS:RadianceParameters,
  {270a96f1-3c86-4b75-a667-cdf22790e2c8}, !- Handle
  1,                                      !- Accumulated Rays per Record
  0,                                      !- Direct Threshold
  1,                                      !- Direct Certainty
  1,                                      !- Direct Jitter
  1,                                      !- Direct Pretest
  6,                                      !- Ambient Bounces VMX
  2,                                      !- Ambient Bounces DMX
  4050,                                   !- Ambient Divisions VMX
  512,                                    !- Ambient Divisions DMX
  256,                                    !- Ambient Supersamples
  0.001,                                  !- Limit Weight VMX
  0.001,                                  !- Limit Weight DMX
  500,                                    !- Klems Sampling Density
  146;                                    !- Sky Discretization Resolution

OS:SimulationControl,
  {2c487a4c-bac9-4ac5-b669-1e49d9da7c2b}, !- Handle
  ,                                       !- Do Zone Sizing Calculation
  ,                                       !- Do System Sizing Calculation
  ,                                       !- Do Plant Sizing Calculation
  No,                                     !- Run Simulation for Sizing Periods
  ,                                       !- Run Simulation for Weather File Run Periods
  0.04,                                   !- Loads Convergence Tolerance Value
  ,                                       !- Temperature Convergence Tolerance Value {deltaC}
  ,                                       !- Solar Distribution
  ,                                       !- Maximum Number of Warmup Days
  2;                                      !- Minimum Number of Warmup Days

OS:Sizing:Parameters,
  {dde5af6f-7923-4600-a28a-7556673a0266}, !- Handle
  1.25,                                   !- Heating Sizing Factor
  1.15;                                   !- Cooling Sizing Factor

OS:ProgramControl,
  {05027a99-f2b3-4aeb-afc6-1425fbb4371d}; !- Handle

OS:Timestep,
  {4ebc9f1e-4707-402e-9844-67eb1ffbd522}, !- Handle
  2;                                      !- Number of Timesteps per Hour

OS:OutputControl:ReportingTolerances,
  {65797aa2-06a9-45fe-b69d-bc6e060399d3}; !- Handle

OS:ConvergenceLimits,
  {9fc11aba-8822-4f3d-970c-46391ba4040d}; !- Handle

OS:ShadowCalculation,
  {ca758bea-4416-4626-9bba-3d8795c79bd6}, !- Handle
  7,                                      !- Calculation Frequency
  15000;                                  !- Maximum Figures in Shadow Overlap Calculations

OS:SurfaceConvectionAlgorithm:Inside,
  {aaabfc36-718a-4ab0-b622-f186ebb45230}, !- Handle
  TARP;                                   !- Algorithm

OS:SurfaceConvectionAlgorithm:Outside,
  {9a0a9f6f-4bbd-4b12-a121-9492a1fcd7d6}, !- Handle
  DOE-2;                                  !- Algorithm

OS:HeatBalanceAlgorithm,
  {9d93e563-e1e0-46d7-9e39-d1c8aceb7212}, !- Handle
  ConductionTransferFunction,             !- Algorithm
  200;                                    !- Surface Temperature Upper Limit {F}

OS:ZoneAirHeatBalanceAlgorithm,
  {8520d93e-310f-4696-9bcd-36228bfdd743}, !- Handle
  AnalyticalSolution;                     !- Algorithm

OS:ZoneAirContaminantBalance,
  {eb5fc3ae-fb22-4160-8fcb-3e3b22b000d3}; !- Handle

OS:ZoneCapacitanceMultiplier:ResearchSpecial,
  {4020ce4f-5a7a-4849-8028-8305d7b751b1}, !- Handle
  ,                                       !- Temperature Capacity Multiplier
  ,                                       !- Humidity Capacity Multiplier
  ;                                       !- Carbon Dioxide Capacity Multiplier

OS:RunPeriod,
  {28df894d-6af9-4fb8-8f56-df1753344aa3}, !- Handle
  Run Period 1,                           !- Name
  1,                                      !- Begin Month
  1,                                      !- Begin Day of Month
  12,                                     !- End Month
  31,                                     !- End Day of Month
  ,                                       !- Use Weather File Holidays and Special Days
  ,                                       !- Use Weather File Daylight Saving Period
  ,                                       !- Apply Weekend Holiday Rule
  ,                                       !- Use Weather File Rain Indicators
  ,                                       !- Use Weather File Snow Indicators
  ;                                       !- Number of Times Runperiod to be Repeated

OS:Building,
  {bf305633-c5a1-4881-9edf-ca5e1a8e1274}, !- Handle
  Building 1,                             !- Name
  ,                                       !- Building Sector Type
  ,                                       !- North Axis {deg}
  ,                                       !- Nominal Floor to Floor Height {m}
  ,                                       !- Space Type Name
  ,                                       !- Default Construction Set Name
  {39de0ff2-5c04-4380-aa12-2a5377f5652a}, !- Default Schedule Set Name
  ,                                       !- Standards Number of Stories
  ,                                       !- Standards Number of Above Ground Stories
  PrimarySchool;                          !- Standards Building Type

OS:LifeCycleCost:Parameters,
  {231cf8a0-f0e7-4251-a99f-11f0d464e661}, !- Handle
  FEMP,                                   !- Analysis Type
  ,                                       !- Discounting Convention
  ,                                       !- Inflation Approach
  ,                                       !- Real Discount Rate
  ,                                       !- Nominal Discount Rate
  ,                                       !- Inflation
  ,                                       !- Base Date Month
  ,                                       !- Base Date Year
  ,                                       !- Service Date Month
  ,                                       !- Service Date Year
  ,                                       !- Length of Study Period in Years
  ,                                       !- Tax Rate
  ,                                       !- Depreciation Method
  Yes;                                    !- Use NIST Fuel Escalation Rates

OS:Facility,
  {3ba8e45b-b833-44eb-a723-ea6c3946dc96}; !- Handle

OS:SpaceType,
  {c7f916a8-2fb6-407a-a53b-d1ba87c2893a}, !- Handle
  PrimarySchool|BlendEdu|DOE Ref 2004|ASHRAE 169-2006-5A, !- Name
  {edfaa8da-436f-4785-892e-5f62dce0bd5c}, !- Default Construction Set Name
  ,                                       !- Default Schedule Set Name
  {0f2cb24c-742d-46b7-9cba-2995f33d32a1}, !- Group Rendering Name
  {b812ad1c-9f5c-468a-9ffa-19c182a7a6c2}, !- Design Specification Outdoor Air Object Name
  PrimarySchool,                          !- Standards Building Type
  BlendEdu;                               !- Standards Space Type

OS:Rendering:Color,
  {0f2cb24c-742d-46b7-9cba-2995f33d32a1}, !- Handle
  Rendering Color 1,                      !- Name
  120,                                    !- Rendering Red Value
  230,                                    !- Rendering Green Value
  199;                                    !- Rendering Blue Value

OS:SpaceType,
  {4813a1cb-e113-4b6c-bcca-fc527268949a}, !- Handle
  PrimarySchool|BlendOff|DOE Ref 2004|ASHRAE 169-2006-5A, !- Name
  {edfaa8da-436f-4785-892e-5f62dce0bd5c}, !- Default Construction Set Name
  ,                                       !- Default Schedule Set Name
  {99ae73c4-90a7-4658-bdd2-1ac45c5e5511}, !- Group Rendering Name
  {144d02d6-f4b5-41aa-8972-aef89f9582a5}, !- Design Specification Outdoor Air Object Name
  PrimarySchool,                          !- Standards Building Type
  BlendOff;                               !- Standards Space Type

OS:Rendering:Color,
  {99ae73c4-90a7-4658-bdd2-1ac45c5e5511}, !- Handle
  Rendering Color 2,                      !- Name
  120,                                    !- Rendering Red Value
  230,                                    !- Rendering Green Value
  199;                                    !- Rendering Blue Value

OS:SpaceType,
  {5d9a9807-56df-4565-b87c-b86122e5d1f2}, !- Handle
  PrimarySchool|Library|DOE Ref 2004|ASHRAE 169-2006-5A, !- Name
  {edfaa8da-436f-4785-892e-5f62dce0bd5c}, !- Default Construction Set Name
  {486c3af3-b6a5-4608-9af4-4aeecc3a1c7b}, !- Default Schedule Set Name
  {32e6cf54-39e4-49ae-ba2d-ddf511e15627}, !- Group Rendering Name
  {c38365e0-cf24-4da1-b003-3ce9f1b78e92}, !- Design Specification Outdoor Air Object Name
  PrimarySchool,                          !- Standards Building Type
  Library;                                !- Standards Space Type

OS:Rendering:Color,
  {32e6cf54-39e4-49ae-ba2d-ddf511e15627}, !- Handle
  Rendering Color 3,                      !- Name
  230,                                    !- Rendering Red Value
  196,                                    !- Rendering Green Value
  120;                                    !- Rendering Blue Value

OS:SpaceType,
  {4b57733b-0bcf-40a8-be76-69fb1b081144}, !- Handle
  PrimarySchool|Gym|DOE Ref 2004|ASHRAE 169-2006-5A, !- Name
  {edfaa8da-436f-4785-892e-5f62dce0bd5c}, !- Default Construction Set Name
  {d958e6ea-8224-4ebc-ad0c-ece0bb789c35}, !- Default Schedule Set Name
  {78940a17-1a6c-4ab4-be9a-77a5490c4e3c}, !- Group Rendering Name
  {2e441dcf-a29b-4d6b-8cd6-8ca2e4734f46}, !- Design Specification Outdoor Air Object Name
  PrimarySchool,                          !- Standards Building Type
  Gym;                                    !- Standards Space Type

OS:Rendering:Color,
  {78940a17-1a6c-4ab4-be9a-77a5490c4e3c}, !- Handle
  Rendering Color 4,                      !- Name
  154,                                    !- Rendering Red Value
  230,                                    !- Rendering Green Value
  120;                                    !- Rendering Blue Value

OS:SpaceType,
  {ae22ebd3-3097-47a9-b9a5-b6c6982df52a}, !- Handle
  PrimarySchool|Cafeteria|DOE Ref 2004|ASHRAE 169-2006-5A, !- Name
  {edfaa8da-436f-4785-892e-5f62dce0bd5c}, !- Default Construction Set Name
  {a601b0f0-8303-4dc2-afb1-a53112edd509}, !- Default Schedule Set Name
  {72c02969-fde9-466c-94e6-57e5212e0b54}, !- Group Rendering Name
  {10f7286e-2bbd-4ff6-a28e-c0fe55c8bd4d}, !- Design Specification Outdoor Air Object Name
  PrimarySchool,                          !- Standards Building Type
  Cafeteria;                              !- Standards Space Type

OS:Rendering:Color,
  {72c02969-fde9-466c-94e6-57e5212e0b54}, !- Handle
  Rendering Color 5,                      !- Name
  31,                                     !- Rendering Red Value
  169,                                    !- Rendering Green Value
  34;                                     !- Rendering Blue Value

OS:SpaceType,
  {f1c08841-c792-4db1-b886-6d56280bb972}, !- Handle
  PrimarySchool|Kitchen|DOE Ref 2004|ASHRAE 169-2006-5A, !- Name
  {edfaa8da-436f-4785-892e-5f62dce0bd5c}, !- Default Construction Set Name
  {b38695a0-bbe0-43bf-b854-640ed837c5e8}, !- Default Schedule Set Name
  {3d38ea2c-4360-43ff-9a24-eca5bd783f04}, !- Group Rendering Name
  {77dee6a1-a575-4505-984a-7f1dab780ea0}, !- Design Specification Outdoor Air Object Name
  PrimarySchool,                          !- Standards Building Type
  Kitchen;                                !- Standards Space Type

OS:Rendering:Color,
  {3d38ea2c-4360-43ff-9a24-eca5bd783f04}, !- Handle
  Rendering Color 6,                      !- Name
  78,                                     !- Rendering Red Value
  222,                                    !- Rendering Green Value
  133;                                    !- Rendering Blue Value

OS:Schedule:Ruleset,
  {8034bd05-8cfd-4052-a9a3-726b113f5cc7}, !- Handle
  0800|1600|PrimarySchool|default|hoo,    !- Name
  {d861c983-80e5-4af9-b05f-619abf169d7b}, !- Schedule Type Limits Name
  {e57729d5-2aba-48f0-867b-0812e1725e19}, !- Default Day Schedule Name
  {8881f444-ec4a-4839-8f09-fa72a337ba5e}, !- Summer Design Day Schedule Name
  {0343f9b4-ab0c-42bc-9238-62e8b46e1428}; !- Winter Design Day Schedule Name

OS:Schedule:Day,
  {e57729d5-2aba-48f0-867b-0812e1725e19}, !- Handle
  0800|1600|PrimarySchool|default|hoo Schedule Week Day, !- Name
  {d861c983-80e5-4af9-b05f-619abf169d7b}, !- Schedule Type Limits Name
  ,                                       !- Interpolate to Timestep
  8,                                      !- Hour 1
  0,                                      !- Minute 1
  0,                                      !- Value Until Time 1
  16,                                     !- Hour 2
  0,                                      !- Minute 2
  1,                                      !- Value Until Time 2
  24,                                     !- Hour 3
  0,                                      !- Minute 3
  0;                                      !- Value Until Time 3

OS:Schedule:Day,
  {e7915876-ff8a-4b3f-937a-40632194d8e4}, !- Handle
  Schedule Day 2,                         !- Name
  ,                                       !- Schedule Type Limits Name
  ,                                       !- Interpolate to Timestep
  24,                                     !- Hour 1
  0,                                      !- Minute 1
  0;                                      !- Value Until Time 1

OS:Schedule:Day,
  {0343f9b4-ab0c-42bc-9238-62e8b46e1428}, !- Handle
  0800|1600|PrimarySchool|default|hoo Winter Design Day, !- Name
  {d861c983-80e5-4af9-b05f-619abf169d7b}, !- Schedule Type Limits Name
  ,                                       !- Interpolate to Timestep
  24,                                     !- Hour 1
  0,                                      !- Minute 1
  0;                                      !- Value Until Time 1

OS:Schedule:Day,
  {f39e6cba-4cf7-4a27-a7fd-a38b30475e3b}, !- Handle
  Schedule Day 3,                         !- Name
  ,                                       !- Schedule Type Limits Name
  ,                                       !- Interpolate to Timestep
  24,                                     !- Hour 1
  0,                                      !- Minute 1
  0;                                      !- Value Until Time 1

OS:Schedule:Day,
  {8881f444-ec4a-4839-8f09-fa72a337ba5e}, !- Handle
  0800|1600|PrimarySchool|default|hoo Summer Design Day, !- Name
  {d861c983-80e5-4af9-b05f-619abf169d7b}, !- Schedule Type Limits Name
  ,                                       !- Interpolate to Timestep
  24,                                     !- Hour 1
  0,                                      !- Minute 1
  1;                                      !- Value Until Time 1

OS:DefaultScheduleSet,
  {39de0ff2-5c04-4380-aa12-2a5377f5652a}, !- Handle
  Building Hours of Operation,            !- Name
  {8034bd05-8cfd-4052-a9a3-726b113f5cc7}, !- Hours of Operation Schedule Name
  ,                                       !- Number of People Schedule Name
  ,                                       !- People Activity Level Schedule Name
  ,                                       !- Lighting Schedule Name
  ,                                       !- Electric Equipment Schedule Name
  ,                                       !- Gas Equipment Schedule Name
  ,                                       !- Hot Water Equipment Schedule Name
  ,                                       !- Infiltration Schedule Name
  ,                                       !- Steam Equipment Schedule Name
  ;                                       !- Other Equipment Schedule Name

OS:ScheduleTypeLimits,
  {d861c983-80e5-4af9-b05f-619abf169d7b}, !- Handle
  OnOff,                                  !- Name
  0,                                      !- Lower Limit Value {BasedOnField A4}
  1,                                      !- Upper Limit Value {BasedOnField A4}
  Discrete,                               !- Numeric Type
  Availability;                           !- Unit Type

OS:Schedule:Ruleset,
  {7cc61a9d-a9cb-463d-8e6b-ddba47d9154a}, !- Handle
  0800|1600|PrimarySchool|default|ext_lighting, !- Name
  {7e22cf7e-a86a-414f-9543-b30dfcd3f4dc}, !- Schedule Type Limits Name
  {28cdb4ad-4de9-4977-a2ae-7812e5e2c832}, !- Default Day Schedule Name
  {d6a4c7cd-5ccd-4a9f-97f9-4eae74152e72}, !- Summer Design Day Schedule Name
  {e7bcb20c-1f56-473d-b65e-19312b9d22eb}; !- Winter Design Day Schedule Name

OS:ScheduleTypeLimits,
  {7e22cf7e-a86a-414f-9543-b30dfcd3f4dc}, !- Handle
  Lights Schedule Type Limits,            !- Name
  0,                                      !- Lower Limit Value {BasedOnField A4}
  1,                                      !- Upper Limit Value {BasedOnField A4}
  Continuous,                             !- Numeric Type
  Dimensionless;                          !- Unit Type

OS:Schedule:Day,
  {28cdb4ad-4de9-4977-a2ae-7812e5e2c832}, !- Handle
  0800|1600|PrimarySchool|default|ext_lighting |default, !- Name
  {7e22cf7e-a86a-414f-9543-b30dfcd3f4dc}, !- Schedule Type Limits Name
  ,                                       !- Interpolate to Timestep
  24,                                     !- Hour 1
  0,                                      !- Minute 1
  1;                                      !- Value Until Time 1

OS:Schedule:Day,
  {d6a4c7cd-5ccd-4a9f-97f9-4eae74152e72}, !- Handle
  0800|1600|PrimarySchool|default|ext_lighting Summer Design Day, !- Name
  {7e22cf7e-a86a-414f-9543-b30dfcd3f4dc}, !- Schedule Type Limits Name
  ,                                       !- Interpolate to Timestep
  24,                                     !- Hour 1
  0,                                      !- Minute 1
  1;                                      !- Value Until Time 1

OS:Schedule:Day,
  {e7bcb20c-1f56-473d-b65e-19312b9d22eb}, !- Handle
  0800|1600|PrimarySchool|default|ext_lighting Winter Design Day, !- Name
  {7e22cf7e-a86a-414f-9543-b30dfcd3f4dc}, !- Schedule Type Limits Name
  ,                                       !- Interpolate to Timestep
  24,                                     !- Hour 1
  0,                                      !- Minute 1
  1;                                      !- Value Until Time 1

OS:Schedule:Ruleset,
  {4561cac8-2332-43db-ac25-659dc33b245c}, !- Handle
  0800|1600|PrimarySchool|default|rh,     !- Name
  {1c42f43a-8e76-44d1-bb63-fa3d0fe4a84c}, !- Schedule Type Limits Name
  {94579b37-f4eb-492f-ab13-72da5af93e55}, !- Default Day Schedule Name
  {0d662cd9-5c99-4e3c-a0c5-957808fb60c1}, !- Summer Design Day Schedule Name
  {9cb0c594-22c2-4948-bea8-d8acb50aa0e8}; !- Winter Design Day Schedule Name

OS:ScheduleTypeLimits,
  {1c42f43a-8e76-44d1-bb63-fa3d0fe4a84c}, !- Handle
  Dimensionless Schedule Type Limits,     !- Name
  ,                                       !- Lower Limit Value {BasedOnField A4}
  ,                                       !- Upper Limit Value {BasedOnField A4}
  Continuous,                             !- Numeric Type
  Dimensionless;                          !- Unit Type

OS:Schedule:Day,
  {94579b37-f4eb-492f-ab13-72da5af93e55}, !- Handle
  0800|1600|PrimarySchool|default|rh |default, !- Name
  {1c42f43a-8e76-44d1-bb63-fa3d0fe4a84c}, !- Schedule Type Limits Name
  ,                                       !- Interpolate to Timestep
  24,                                     !- Hour 1
  0,                                      !- Minute 1
  50;                                     !- Value Until Time 1

OS:Schedule:Day,
  {0d662cd9-5c99-4e3c-a0c5-957808fb60c1}, !- Handle
  0800|1600|PrimarySchool|default|rh Summer Design Day, !- Name
  {1c42f43a-8e76-44d1-bb63-fa3d0fe4a84c}, !- Schedule Type Limits Name
  ,                                       !- Interpolate to Timestep
  24,                                     !- Hour 1
  0,                                      !- Minute 1
  50;                                     !- Value Until Time 1

OS:Schedule:Day,
  {9cb0c594-22c2-4948-bea8-d8acb50aa0e8}, !- Handle
  0800|1600|PrimarySchool|default|rh Winter Design Day, !- Name
  {1c42f43a-8e76-44d1-bb63-fa3d0fe4a84c}, !- Schedule Type Limits Name
  ,                                       !- Interpolate to Timestep
  24,                                     !- Hour 1
  0,                                      !- Minute 1
  50;                                     !- Value Until Time 1

OS:Schedule:Ruleset,
  {30cd1d18-53c3-437b-a935-4871050a93b2}, !- Handle
  0800|1600|PrimarySchool|Corridor|clg_setpoint, !- Name
  {63d5fefc-741c-4e38-992a-065c9d04990c}, !- Schedule Type Limits Name
  {5b56900f-d008-42b2-866d-161db5ac515f}, !- Default Day Schedule Name
  {a6c446c5-4b07-4927-8ff2-523690c490e6}, !- Summer Design Day Schedule Name
  {6e6d24b2-4e36-494b-971b-39f63b91c2e0}; !- Winter Design Day Schedule Name

OS:ScheduleTypeLimits,
  {63d5fefc-741c-4e38-992a-065c9d04990c}, !- Handle
  Thermostat Cooling Setpoint Schedule Type Limits, !- Name
  0,                                      !- Lower Limit Value {BasedOnField A4}
  100,                                    !- Upper Limit Value {BasedOnField A4}
  Continuous,                             !- Numeric Type
  Temperature;                            !- Unit Type

OS:Schedule:Day,
  {5b56900f-d008-42b2-866d-161db5ac515f}, !- Handle
  0800|1600|PrimarySchool|Corridor|clg_setpoint |default, !- Name
  {63d5fefc-741c-4e38-992a-065c9d04990c}, !- Schedule Type Limits Name
  ,                                       !- Interpolate to Timestep
  24,                                     !- Hour 1
  0,                                      !- Minute 1
  27.0000000000001;                       !- Value Until Time 1

OS:Schedule:Day,
  {a6c446c5-4b07-4927-8ff2-523690c490e6}, !- Handle
  0800|1600|PrimarySchool|Corridor|clg_setpoint Summer Design Day, !- Name
  {63d5fefc-741c-4e38-992a-065c9d04990c}, !- Schedule Type Limits Name
  ,                                       !- Interpolate to Timestep
  24,                                     !- Hour 1
  0,                                      !- Minute 1
  27.0000000000001;                       !- Value Until Time 1

OS:Schedule:Day,
  {6e6d24b2-4e36-494b-971b-39f63b91c2e0}, !- Handle
  0800|1600|PrimarySchool|Corridor|clg_setpoint Winter Design Day, !- Name
  {63d5fefc-741c-4e38-992a-065c9d04990c}, !- Schedule Type Limits Name
  ,                                       !- Interpolate to Timestep
  24,                                     !- Hour 1
  0,                                      !- Minute 1
  27.0000000000001;                       !- Value Until Time 1

OS:Schedule:Ruleset,
  {eeed5648-28fe-41bd-8966-09f63bc006c9}, !- Handle
  0800|1600|PrimarySchool|Restroom|htg_setpoint, !- Name
  {e264f7ef-c7bd-44d8-88ee-62f03e20f501}, !- Schedule Type Limits Name
  {7fdf6a8e-8c4b-4e39-9902-9e83da11d125}, !- Default Day Schedule Name
  {e58051aa-89a4-4b27-a22a-244a59883998}, !- Summer Design Day Schedule Name
  {544adfbd-c886-4871-8883-b624beed6bef}; !- Winter Design Day Schedule Name

OS:ScheduleTypeLimits,
  {e264f7ef-c7bd-44d8-88ee-62f03e20f501}, !- Handle
  Thermostat Heating Setpoint Schedule Type Limits, !- Name
  0,                                      !- Lower Limit Value {BasedOnField A4}
  100,                                    !- Upper Limit Value {BasedOnField A4}
  Continuous,                             !- Numeric Type
  Temperature;                            !- Unit Type

OS:Schedule:Day,
  {7fdf6a8e-8c4b-4e39-9902-9e83da11d125}, !- Handle
  0800|1600|PrimarySchool|Restroom|htg_setpoint |default, !- Name
  {e264f7ef-c7bd-44d8-88ee-62f03e20f501}, !- Schedule Type Limits Name
  ,                                       !- Interpolate to Timestep
  24,                                     !- Hour 1
  0,                                      !- Minute 1
  16.0000000000001;                       !- Value Until Time 1

OS:Schedule:Day,
  {e58051aa-89a4-4b27-a22a-244a59883998}, !- Handle
  0800|1600|PrimarySchool|Restroom|htg_setpoint Summer Design Day, !- Name
  {e264f7ef-c7bd-44d8-88ee-62f03e20f501}, !- Schedule Type Limits Name
  ,                                       !- Interpolate to Timestep
  24,                                     !- Hour 1
  0,                                      !- Minute 1
  16.0000000000001;                       !- Value Until Time 1

OS:Schedule:Day,
  {544adfbd-c886-4871-8883-b624beed6bef}, !- Handle
  0800|1600|PrimarySchool|Restroom|htg_setpoint Winter Design Day, !- Name
  {e264f7ef-c7bd-44d8-88ee-62f03e20f501}, !- Schedule Type Limits Name
  ,                                       !- Interpolate to Timestep
  24,                                     !- Hour 1
  0,                                      !- Minute 1
  16.0000000000001;                       !- Value Until Time 1

OS:Schedule:Ruleset,
  {c4858d31-731a-447b-bde0-a30d08afc3d7}, !- Handle
  0800|1600|PrimarySchool|Restroom|clg_setpoint, !- Name
  {63d5fefc-741c-4e38-992a-065c9d04990c}, !- Schedule Type Limits Name
  {d5798b90-fc85-43ff-82c9-e12ac18cd581}, !- Default Day Schedule Name
  {8e0153c8-ed0a-40d3-b13d-bf9efe29dde1}, !- Summer Design Day Schedule Name
  {d1a3700d-939c-494e-84a4-d5cc7407b12d}; !- Winter Design Day Schedule Name

OS:Schedule:Day,
  {d5798b90-fc85-43ff-82c9-e12ac18cd581}, !- Handle
  0800|1600|PrimarySchool|Restroom|clg_setpoint |default, !- Name
  {63d5fefc-741c-4e38-992a-065c9d04990c}, !- Schedule Type Limits Name
  ,                                       !- Interpolate to Timestep
  24,                                     !- Hour 1
  0,                                      !- Minute 1
  27.0000000000001;                       !- Value Until Time 1

OS:Schedule:Day,
  {8e0153c8-ed0a-40d3-b13d-bf9efe29dde1}, !- Handle
  0800|1600|PrimarySchool|Restroom|clg_setpoint Summer Design Day, !- Name
  {63d5fefc-741c-4e38-992a-065c9d04990c}, !- Schedule Type Limits Name
  ,                                       !- Interpolate to Timestep
  24,                                     !- Hour 1
  0,                                      !- Minute 1
  27.0000000000001;                       !- Value Until Time 1

OS:Schedule:Day,
  {d1a3700d-939c-494e-84a4-d5cc7407b12d}, !- Handle
  0800|1600|PrimarySchool|Restroom|clg_setpoint Winter Design Day, !- Name
  {63d5fefc-741c-4e38-992a-065c9d04990c}, !- Schedule Type Limits Name
  ,                                       !- Interpolate to Timestep
  24,                                     !- Hour 1
  0,                                      !- Minute 1
  27.0000000000001;                       !- Value Until Time 1

OS:Schedule:Ruleset,
  {17be9c38-6194-4115-9f40-d70b9d2918e7}, !- Handle
  0800|1600|PrimarySchool|default|work_eff, !- Name
  {5e19537b-446d-475e-9625-2307432ff705}, !- Schedule Type Limits Name
  {6bfdf24e-8416-4b82-9eaf-63a07c6a15fa}, !- Default Day Schedule Name
  {9b5e19ca-f743-4095-8a70-1f589ed43d4e}, !- Summer Design Day Schedule Name
  {c633df73-db1e-4b88-856a-4cd2bf636435}; !- Winter Design Day Schedule Name

OS:ScheduleTypeLimits,
  {5e19537b-446d-475e-9625-2307432ff705}, !- Handle
  Fraction Schedule Type Limits,          !- Name
  0,                                      !- Lower Limit Value {BasedOnField A4}
  1,                                      !- Upper Limit Value {BasedOnField A4}
  Continuous,                             !- Numeric Type
  Dimensionless;                          !- Unit Type

OS:Schedule:Day,
  {6bfdf24e-8416-4b82-9eaf-63a07c6a15fa}, !- Handle
  0800|1600|PrimarySchool|default|work_eff |default, !- Name
  {5e19537b-446d-475e-9625-2307432ff705}, !- Schedule Type Limits Name
  ,                                       !- Interpolate to Timestep
  24,                                     !- Hour 1
  0,                                      !- Minute 1
  0;                                      !- Value Until Time 1

OS:Schedule:Day,
  {9b5e19ca-f743-4095-8a70-1f589ed43d4e}, !- Handle
  0800|1600|PrimarySchool|default|work_eff Summer Design Day, !- Name
  {5e19537b-446d-475e-9625-2307432ff705}, !- Schedule Type Limits Name
  ,                                       !- Interpolate to Timestep
  24,                                     !- Hour 1
  0,                                      !- Minute 1
  0;                                      !- Value Until Time 1

OS:Schedule:Day,
  {c633df73-db1e-4b88-856a-4cd2bf636435}, !- Handle
  0800|1600|PrimarySchool|default|work_eff Winter Design Day, !- Name
  {5e19537b-446d-475e-9625-2307432ff705}, !- Schedule Type Limits Name
  ,                                       !- Interpolate to Timestep
  24,                                     !- Hour 1
  0,                                      !- Minute 1
  0;                                      !- Value Until Time 1

OS:Schedule:Ruleset,
  {083f1243-7f88-4f9d-8c86-b7dfcc69969c}, !- Handle
  0800|1600|PrimarySchool|default|hvac,   !- Name
  {54f6dba2-d8d2-4bcf-b981-038251858b32}, !- Schedule Type Limits Name
  {b736550a-cf1e-4c11-ae93-ab16fbb3f94c}, !- Default Day Schedule Name
  {e8a8ee78-6553-40f2-bc63-0d15cd43d394}, !- Summer Design Day Schedule Name
  {12e20c1a-ca6c-4f08-bf9a-bd6785465949}; !- Winter Design Day Schedule Name
