
OS:Version,
  {44c14154-a977-4275-9a55-f391f530aac6}, !- Handle
  1.5.5;                                  !- Version Identifier

OS:ClimateZones,
  {135edfab-17e7-40db-a436-27d385a8cd6d}, !- Handle
  ,                                       !- Active Institution
  ,                                       !- Active Year
  ASHRAE,                                 !- Climate Zone Institution Name 1
  ANSI/ASHRAE Standard 169,               !- Climate Zone Document Name 1
  2006,                                   !- Climate Zone Document Year 1
  ,                                       !- Climate Zone Value 1
  CEC,                                    !- Climate Zone Institution Name 2
  California Climate Zone Descriptions,   !- Climate Zone Document Name 2
  1995,                                   !- Climate Zone Document Year 2
  ;                                       !- Climate Zone Value 2

OS:YearDescription,
  {513d8dda-86cb-442a-b01c-1f7f0e0ac70e}; !- Handle

OS:RadianceParameters,
  {270a96f1-3c86-4b75-a667-cdf22790e2c8}, !- Handle
  1,                                      !- Accumulated Rays per Record
  0,                                      !- Direct Threshold
  1,                                      !- Direct Certainty
  1,                                      !- Direct Jitter
  1,                                      !- Direct Pretest
  6,                                      !- Ambient Bounces VMX
  2,                                      !- Ambient Bounces DMX
  4050,                                   !- Ambient Divisions VMX
  512,                                    !- Ambient Divisions DMX
  256,                                    !- Ambient Supersamples
  0.001,                                  !- Limit Weight VMX
  0.001,                                  !- Limit Weight DMX
  500,                                    !- Klems Sampling Density
  146;                                    !- Sky Discretization Resolution

OS:SimulationControl,
  {2c487a4c-bac9-4ac5-b669-1e49d9da7c2b}, !- Handle
  ,                                       !- Do Zone Sizing Calculation
  ,                                       !- Do System Sizing Calculation
  ,                                       !- Do Plant Sizing Calculation
  No,                                     !- Run Simulation for Sizing Periods
  ,                                       !- Run Simulation for Weather File Run Periods
  0.04,                                   !- Loads Convergence Tolerance Value
  ,                                       !- Temperature Convergence Tolerance Value {deltaC}
  ,                                       !- Solar Distribution
  ,                                       !- Maximum Number of Warmup Days
  2;                                      !- Minimum Number of Warmup Days

OS:Sizing:Parameters,
  {dde5af6f-7923-4600-a28a-7556673a0266}, !- Handle
  1.25,                                   !- Heating Sizing Factor
  1.15;                                   !- Cooling Sizing Factor

OS:ProgramControl,
  {05027a99-f2b3-4aeb-afc6-1425fbb4371d}; !- Handle

OS:Timestep,
  {4ebc9f1e-4707-402e-9844-67eb1ffbd522}, !- Handle
  2;                                      !- Number of Timesteps per Hour

OS:OutputControl:ReportingTolerances,
  {65797aa2-06a9-45fe-b69d-bc6e060399d3}; !- Handle

OS:ConvergenceLimits,
  {9fc11aba-8822-4f3d-970c-46391ba4040d}; !- Handle

OS:ShadowCalculation,
  {ca758bea-4416-4626-9bba-3d8795c79bd6}, !- Handle
  7,                                      !- Calculation Frequency
  15000;                                  !- Maximum Figures in Shadow Overlap Calculations

OS:SurfaceConvectionAlgorithm:Inside,
  {aaabfc36-718a-4ab0-b622-f186ebb45230}, !- Handle
  TARP;                                   !- Algorithm

OS:SurfaceConvectionAlgorithm:Outside,
  {9a0a9f6f-4bbd-4b12-a121-9492a1fcd7d6}, !- Handle
  DOE-2;                                  !- Algorithm

OS:HeatBalanceAlgorithm,
  {9d93e563-e1e0-46d7-9e39-d1c8aceb7212}, !- Handle
  ConductionTransferFunction,             !- Algorithm
  200;                                    !- Surface Temperature Upper Limit {F}

OS:ZoneAirHeatBalanceAlgorithm,
  {8520d93e-310f-4696-9bcd-36228bfdd743}, !- Handle
  AnalyticalSolution;                     !- Algorithm

OS:ZoneAirContaminantBalance,
  {eb5fc3ae-fb22-4160-8fcb-3e3b22b000d3}; !- Handle

OS:ZoneCapacitanceMultiplier:ResearchSpecial,
  {4020ce4f-5a7a-4849-8028-8305d7b751b1}, !- Handle
  ,                                       !- Temperature Capacity Multiplier
  ,                                       !- Humidity Capacity Multiplier
  ;                                       !- Carbon Dioxide Capacity Multiplier

OS:RunPeriod,
  {28df894d-6af9-4fb8-8f56-df1753344aa3}, !- Handle
  Run Period 1,                           !- Name
  1,                                      !- Begin Month
  1,                                      !- Begin Day of Month
  12,                                     !- End Month
  31,                                     !- End Day of Month
  ,                                       !- Use Weather File Holidays and Special Days
  ,                                       !- Use Weather File Daylight Saving Period
  ,                                       !- Apply Weekend Holiday Rule
  ,                                       !- Use Weather File Rain Indicators
  ,                                       !- Use Weather File Snow Indicators
  ;                                       !- Number of Times Runperiod to be Repeated

OS:Building,
  {bf305633-c5a1-4881-9edf-ca5e1a8e1274}, !- Handle
  Building 1,                             !- Name
  ,                                       !- Building Sector Type
  ,                                       !- North Axis {deg}
  ,                                       !- Nominal Floor to Floor Height {m}
  ,                                       !- Space Type Name
  ,                                       !- Default Construction Set Name
  {15d7cb8a-8dfa-4406-85cb-78a1213d5169}, !- Default Schedule Set Name
  ,                                       !- Standards Number of Stories
  ,                                       !- Standards Number of Above Ground Stories
  PrimarySchool;                          !- Standards Building Type

OS:LifeCycleCost:Parameters,
  {231cf8a0-f0e7-4251-a99f-11f0d464e661}, !- Handle
  FEMP,                                   !- Analysis Type
  ,                                       !- Discounting Convention
  ,                                       !- Inflation Approach
  ,                                       !- Real Discount Rate
  ,                                       !- Nominal Discount Rate
  ,                                       !- Inflation
  ,                                       !- Base Date Month
  ,                                       !- Base Date Year
  ,                                       !- Service Date Month
  ,                                       !- Service Date Year
  ,                                       !- Length of Study Period in Years
  ,                                       !- Tax Rate
  ,                                       !- Depreciation Method
  Yes;                                    !- Use NIST Fuel Escalation Rates

OS:Facility,
  {3ba8e45b-b833-44eb-a723-ea6c3946dc96}; !- Handle

OS:SpaceType,
  {87140190-6aa8-4de7-b7d7-d22f8c7a0562}, !- Handle
  PrimarySchool|BlendEdu|DOE Ref 1980-2004|ASHRAE 169-2006-5A, !- Name
  {2124a6a7-c723-40fc-9964-6360df55b8aa}, !- Default Construction Set Name
  ,                                       !- Default Schedule Set Name
  {99f29578-7c9a-40b1-8e3d-f0bf85368ac3}, !- Group Rendering Name
  {a9865310-cc0f-4615-839c-f7e021d52085}, !- Design Specification Outdoor Air Object Name
  PrimarySchool,                          !- Standards Building Type
  BlendEdu;                               !- Standards Space Type

OS:Rendering:Color,
  {99f29578-7c9a-40b1-8e3d-f0bf85368ac3}, !- Handle
  Rendering Color 1,                      !- Name
  120,                                    !- Rendering Red Value
  230,                                    !- Rendering Green Value
  199;                                    !- Rendering Blue Value

OS:SpaceType,
  {5b43ead1-21f8-4413-8764-d1e4f474c5f5}, !- Handle
  PrimarySchool|BlendOff|DOE Ref 1980-2004|ASHRAE 169-2006-5A, !- Name
  {2124a6a7-c723-40fc-9964-6360df55b8aa}, !- Default Construction Set Name
  ,                                       !- Default Schedule Set Name
  {35f233c4-156a-4e98-8a69-19345faf22a4}, !- Group Rendering Name
  {7fc36445-9b32-4ddb-ab1e-b2606a427cc2}, !- Design Specification Outdoor Air Object Name
  PrimarySchool,                          !- Standards Building Type
  BlendOff;                               !- Standards Space Type

OS:Rendering:Color,
  {35f233c4-156a-4e98-8a69-19345faf22a4}, !- Handle
  Rendering Color 2,                      !- Name
  120,                                    !- Rendering Red Value
  230,                                    !- Rendering Green Value
  199;                                    !- Rendering Blue Value

OS:SpaceType,
  {c1d7cdb8-e045-4372-9432-b183341c59a5}, !- Handle
  PrimarySchool|Library|DOE Ref 1980-2004|ASHRAE 169-2006-5A, !- Name
  {2124a6a7-c723-40fc-9964-6360df55b8aa}, !- Default Construction Set Name
  {c99b7a81-eab9-4dbd-a353-67a64f065a8c}, !- Default Schedule Set Name
  {22d86be7-d59b-4b9f-a474-fd3de086482e}, !- Group Rendering Name
  {dddaaeb4-d90b-4737-a9a7-e3919f8b3f74}, !- Design Specification Outdoor Air Object Name
  PrimarySchool,                          !- Standards Building Type
  Library;                                !- Standards Space Type

OS:Rendering:Color,
  {22d86be7-d59b-4b9f-a474-fd3de086482e}, !- Handle
  Rendering Color 3,                      !- Name
  230,                                    !- Rendering Red Value
  196,                                    !- Rendering Green Value
  120;                                    !- Rendering Blue Value

OS:SpaceType,
  {2c82910c-9f28-4849-8905-989a72cb2cbe}, !- Handle
  PrimarySchool|Gym|DOE Ref 1980-2004|ASHRAE 169-2006-5A, !- Name
  {2124a6a7-c723-40fc-9964-6360df55b8aa}, !- Default Construction Set Name
  {2dfd7c11-4252-4fe7-af1e-d76688388c7a}, !- Default Schedule Set Name
  {6a5b5339-1168-4aad-9a33-59030381160c}, !- Group Rendering Name
  {3a3b0237-3dd4-4c6d-8801-bcb6beec05d4}, !- Design Specification Outdoor Air Object Name
  PrimarySchool,                          !- Standards Building Type
  Gym;                                    !- Standards Space Type

OS:Rendering:Color,
  {6a5b5339-1168-4aad-9a33-59030381160c}, !- Handle
  Rendering Color 4,                      !- Name
  154,                                    !- Rendering Red Value
  230,                                    !- Rendering Green Value
  120;                                    !- Rendering Blue Value

OS:SpaceType,
  {2eaaa62e-5863-4c0e-8b17-dd32817f478b}, !- Handle
  PrimarySchool|Cafeteria|DOE Ref 1980-2004|ASHRAE 169-2006-5A, !- Name
  {2124a6a7-c723-40fc-9964-6360df55b8aa}, !- Default Construction Set Name
  {ea8bd7dd-e712-490c-9923-32690cb203fc}, !- Default Schedule Set Name
  {6d5afa01-ce4b-490a-97e3-91fa56cb0a42}, !- Group Rendering Name
  {eb795cd0-493d-454d-8e30-3c7435b3d7fe}, !- Design Specification Outdoor Air Object Name
  PrimarySchool,                          !- Standards Building Type
  Cafeteria;                              !- Standards Space Type

OS:Rendering:Color,
  {6d5afa01-ce4b-490a-97e3-91fa56cb0a42}, !- Handle
  Rendering Color 5,                      !- Name
  31,                                     !- Rendering Red Value
  169,                                    !- Rendering Green Value
  34;                                     !- Rendering Blue Value

OS:SpaceType,
  {22638917-fa27-42fb-ba8a-b96d4e4a362a}, !- Handle
  PrimarySchool|Kitchen|DOE Ref 1980-2004|ASHRAE 169-2006-5A, !- Name
  {2124a6a7-c723-40fc-9964-6360df55b8aa}, !- Default Construction Set Name
  {9c4c9ce3-43e5-4f80-bb92-8e40cec52d53}, !- Default Schedule Set Name
  {409a2158-cd1d-4b9e-bd6b-b48e8cb125f3}, !- Group Rendering Name
  {501c6d95-bdd7-428e-893a-51609d6a498a}, !- Design Specification Outdoor Air Object Name
  PrimarySchool,                          !- Standards Building Type
  Kitchen;                                !- Standards Space Type

OS:Rendering:Color,
  {409a2158-cd1d-4b9e-bd6b-b48e8cb125f3}, !- Handle
  Rendering Color 6,                      !- Name
  78,                                     !- Rendering Red Value
  222,                                    !- Rendering Green Value
  133;                                    !- Rendering Blue Value

OS:Schedule:Ruleset,
  {05f76db7-e12b-4d87-9c44-c1ce389ee0e6}, !- Handle
  0800|1600|PrimarySchool|default|hoo,    !- Name
  {c583388e-b384-4bcc-8b64-82c81127ddf0}, !- Schedule Type Limits Name
  {74c11257-4c7a-4792-965e-c7d9128802eb}, !- Default Day Schedule Name
  {10d72ebd-b06b-4bf0-be9d-72a0bb295f8b}, !- Summer Design Day Schedule Name
  {051f6ccf-e399-4027-b4d2-f212d6a8be78}; !- Winter Design Day Schedule Name

OS:Schedule:Day,
  {74c11257-4c7a-4792-965e-c7d9128802eb}, !- Handle
  0800|1600|PrimarySchool|default|hoo Schedule Week Day, !- Name
  {c583388e-b384-4bcc-8b64-82c81127ddf0}, !- Schedule Type Limits Name
  ,                                       !- Interpolate to Timestep
  8,                                      !- Hour 1
  0,                                      !- Minute 1
  0,                                      !- Value Until Time 1
  16,                                     !- Hour 2
  0,                                      !- Minute 2
  1,                                      !- Value Until Time 2
  24,                                     !- Hour 3
  0,                                      !- Minute 3
  0;                                      !- Value Until Time 3

OS:Schedule:Day,
  {468346a8-8b34-4637-9c6c-25d3c1dc100a}, !- Handle
  Schedule Day 2,                         !- Name
  ,                                       !- Schedule Type Limits Name
  ,                                       !- Interpolate to Timestep
  24,                                     !- Hour 1
  0,                                      !- Minute 1
  0;                                      !- Value Until Time 1

OS:Schedule:Day,
  {051f6ccf-e399-4027-b4d2-f212d6a8be78}, !- Handle
  0800|1600|PrimarySchool|default|hoo Winter Design Day, !- Name
  {c583388e-b384-4bcc-8b64-82c81127ddf0}, !- Schedule Type Limits Name
  ,                                       !- Interpolate to Timestep
  24,                                     !- Hour 1
  0,                                      !- Minute 1
  0;                                      !- Value Until Time 1

OS:Schedule:Day,
  {24e027ef-b128-4b35-a59e-ca88f2893e68}, !- Handle
  Schedule Day 3,                         !- Name
  ,                                       !- Schedule Type Limits Name
  ,                                       !- Interpolate to Timestep
  24,                                     !- Hour 1
  0,                                      !- Minute 1
  0;                                      !- Value Until Time 1

OS:Schedule:Day,
  {10d72ebd-b06b-4bf0-be9d-72a0bb295f8b}, !- Handle
  0800|1600|PrimarySchool|default|hoo Summer Design Day, !- Name
  {c583388e-b384-4bcc-8b64-82c81127ddf0}, !- Schedule Type Limits Name
  ,                                       !- Interpolate to Timestep
  24,                                     !- Hour 1
  0,                                      !- Minute 1
  1;                                      !- Value Until Time 1

OS:DefaultScheduleSet,
  {15d7cb8a-8dfa-4406-85cb-78a1213d5169}, !- Handle
  Building Hours of Operation,            !- Name
  {05f76db7-e12b-4d87-9c44-c1ce389ee0e6}, !- Hours of Operation Schedule Name
  ,                                       !- Number of People Schedule Name
  ,                                       !- People Activity Level Schedule Name
  ,                                       !- Lighting Schedule Name
  ,                                       !- Electric Equipment Schedule Name
  ,                                       !- Gas Equipment Schedule Name
  ,                                       !- Hot Water Equipment Schedule Name
  ,                                       !- Infiltration Schedule Name
  ,                                       !- Steam Equipment Schedule Name
  ;                                       !- Other Equipment Schedule Name

OS:ScheduleTypeLimits,
  {c583388e-b384-4bcc-8b64-82c81127ddf0}, !- Handle
  OnOff,                                  !- Name
  0,                                      !- Lower Limit Value {BasedOnField A4}
  1,                                      !- Upper Limit Value {BasedOnField A4}
  Discrete,                               !- Numeric Type
  Availability;                           !- Unit Type

OS:Schedule:Ruleset,
  {d14c2b64-6d93-4037-9395-95b4e70102b8}, !- Handle
  0800|1600|PrimarySchool|default|ext_lighting, !- Name
  {f01dab9f-cef2-4826-9ee1-f3e99653a3b8}, !- Schedule Type Limits Name
  {01128017-a129-4810-b846-774fb13076cc}, !- Default Day Schedule Name
  {232fb97f-519a-461e-806a-4d267882101a}, !- Summer Design Day Schedule Name
  {48d208f0-683d-440a-8c6a-e6e38a53121c}; !- Winter Design Day Schedule Name

OS:ScheduleTypeLimits,
  {f01dab9f-cef2-4826-9ee1-f3e99653a3b8}, !- Handle
  Lights Schedule Type Limits,            !- Name
  0,                                      !- Lower Limit Value {BasedOnField A4}
  1,                                      !- Upper Limit Value {BasedOnField A4}
  Continuous,                             !- Numeric Type
  Dimensionless;                          !- Unit Type

OS:Schedule:Day,
  {01128017-a129-4810-b846-774fb13076cc}, !- Handle
  0800|1600|PrimarySchool|default|ext_lighting |default, !- Name
  {f01dab9f-cef2-4826-9ee1-f3e99653a3b8}, !- Schedule Type Limits Name
  ,                                       !- Interpolate to Timestep
  24,                                     !- Hour 1
  0,                                      !- Minute 1
  1;                                      !- Value Until Time 1

OS:Schedule:Day,
  {232fb97f-519a-461e-806a-4d267882101a}, !- Handle
  0800|1600|PrimarySchool|default|ext_lighting Summer Design Day, !- Name
  {f01dab9f-cef2-4826-9ee1-f3e99653a3b8}, !- Schedule Type Limits Name
  ,                                       !- Interpolate to Timestep
  24,                                     !- Hour 1
  0,                                      !- Minute 1
  1;                                      !- Value Until Time 1

OS:Schedule:Day,
  {48d208f0-683d-440a-8c6a-e6e38a53121c}, !- Handle
  0800|1600|PrimarySchool|default|ext_lighting Winter Design Day, !- Name
  {f01dab9f-cef2-4826-9ee1-f3e99653a3b8}, !- Schedule Type Limits Name
  ,                                       !- Interpolate to Timestep
  24,                                     !- Hour 1
  0,                                      !- Minute 1
  1;                                      !- Value Until Time 1

OS:Schedule:Ruleset,
  {a99e7b66-5bfc-4eb6-9fb6-8081351c610f}, !- Handle
  0800|1600|PrimarySchool|default|rh,     !- Name
  {d0980e5f-5264-4f60-be40-f7540d5ca650}, !- Schedule Type Limits Name
  {a33821e9-2422-4f1c-b7c9-5651e8adb121}, !- Default Day Schedule Name
  {7ad51ae7-1410-4172-a478-38bff9075e75}, !- Summer Design Day Schedule Name
  {f1f6db69-b6bb-40fc-8588-e28c17ba8ba2}; !- Winter Design Day Schedule Name

OS:ScheduleTypeLimits,
  {d0980e5f-5264-4f60-be40-f7540d5ca650}, !- Handle
  Dimensionless Schedule Type Limits,     !- Name
  ,                                       !- Lower Limit Value {BasedOnField A4}
  ,                                       !- Upper Limit Value {BasedOnField A4}
  Continuous,                             !- Numeric Type
  Dimensionless;                          !- Unit Type

OS:Schedule:Day,
  {a33821e9-2422-4f1c-b7c9-5651e8adb121}, !- Handle
  0800|1600|PrimarySchool|default|rh |default, !- Name
  {d0980e5f-5264-4f60-be40-f7540d5ca650}, !- Schedule Type Limits Name
  ,                                       !- Interpolate to Timestep
  24,                                     !- Hour 1
  0,                                      !- Minute 1
  50;                                     !- Value Until Time 1

OS:Schedule:Day,
  {7ad51ae7-1410-4172-a478-38bff9075e75}, !- Handle
  0800|1600|PrimarySchool|default|rh Summer Design Day, !- Name
  {d0980e5f-5264-4f60-be40-f7540d5ca650}, !- Schedule Type Limits Name
  ,                                       !- Interpolate to Timestep
  24,                                     !- Hour 1
  0,                                      !- Minute 1
  50;                                     !- Value Until Time 1

OS:Schedule:Day,
  {f1f6db69-b6bb-40fc-8588-e28c17ba8ba2}, !- Handle
  0800|1600|PrimarySchool|default|rh Winter Design Day, !- Name
  {d0980e5f-5264-4f60-be40-f7540d5ca650}, !- Schedule Type Limits Name
  ,                                       !- Interpolate to Timestep
  24,                                     !- Hour 1
  0,                                      !- Minute 1
  50;                                     !- Value Until Time 1

OS:Schedule:Ruleset,
  {d8853db1-84b8-456c-8168-2e00888fb547}, !- Handle
  0800|1600|PrimarySchool|Corridor|clg_setpoint, !- Name
  {de2e9886-16ad-4a8e-92b5-a2e4f194d315}, !- Schedule Type Limits Name
  {327c866c-a023-4029-a967-cd1781a79db9}, !- Default Day Schedule Name
  {5d2073c4-8d92-4ee0-a793-14a4f06c6b75}, !- Summer Design Day Schedule Name
  {361c7bcf-cbe0-4f90-889c-677290fca6bf}; !- Winter Design Day Schedule Name

OS:ScheduleTypeLimits,
  {de2e9886-16ad-4a8e-92b5-a2e4f194d315}, !- Handle
  Thermostat Cooling Setpoint Schedule Type Limits, !- Name
  0,                                      !- Lower Limit Value {BasedOnField A4}
  100,                                    !- Upper Limit Value {BasedOnField A4}
  Continuous,                             !- Numeric Type
  Temperature;                            !- Unit Type

OS:Schedule:Day,
  {327c866c-a023-4029-a967-cd1781a79db9}, !- Handle
  0800|1600|PrimarySchool|Corridor|clg_setpoint |default, !- Name
  {de2e9886-16ad-4a8e-92b5-a2e4f194d315}, !- Schedule Type Limits Name
  ,                                       !- Interpolate to Timestep
  24,                                     !- Hour 1
  0,                                      !- Minute 1
  27.0000000000001;                       !- Value Until Time 1

OS:Schedule:Day,
  {5d2073c4-8d92-4ee0-a793-14a4f06c6b75}, !- Handle
  0800|1600|PrimarySchool|Corridor|clg_setpoint Summer Design Day, !- Name
  {de2e9886-16ad-4a8e-92b5-a2e4f194d315}, !- Schedule Type Limits Name
  ,                                       !- Interpolate to Timestep
  24,                                     !- Hour 1
  0,                                      !- Minute 1
  27.0000000000001;                       !- Value Until Time 1

OS:Schedule:Day,
  {361c7bcf-cbe0-4f90-889c-677290fca6bf}, !- Handle
  0800|1600|PrimarySchool|Corridor|clg_setpoint Winter Design Day, !- Name
  {de2e9886-16ad-4a8e-92b5-a2e4f194d315}, !- Schedule Type Limits Name
  ,                                       !- Interpolate to Timestep
  24,                                     !- Hour 1
  0,                                      !- Minute 1
  27.0000000000001;                       !- Value Until Time 1

OS:Schedule:Ruleset,
  {72a51035-7d48-4bb3-9cfd-b5d184981450}, !- Handle
  0800|1600|PrimarySchool|Restroom|htg_setpoint, !- Name
  {67ca952e-6827-4642-a8c5-57275fdebcff}, !- Schedule Type Limits Name
  {37809276-f075-44a4-ba76-edb1db10c207}, !- Default Day Schedule Name
  {36ce59f3-a6f9-4967-a37e-4686f682bd8f}, !- Summer Design Day Schedule Name
  {a0338062-e24f-4b99-849b-7b226c262722}; !- Winter Design Day Schedule Name

OS:ScheduleTypeLimits,
  {67ca952e-6827-4642-a8c5-57275fdebcff}, !- Handle
  Thermostat Heating Setpoint Schedule Type Limits, !- Name
  0,                                      !- Lower Limit Value {BasedOnField A4}
  100,                                    !- Upper Limit Value {BasedOnField A4}
  Continuous,                             !- Numeric Type
  Temperature;                            !- Unit Type

OS:Schedule:Day,
  {37809276-f075-44a4-ba76-edb1db10c207}, !- Handle
  0800|1600|PrimarySchool|Restroom|htg_setpoint |default, !- Name
  {67ca952e-6827-4642-a8c5-57275fdebcff}, !- Schedule Type Limits Name
  ,                                       !- Interpolate to Timestep
  24,                                     !- Hour 1
  0,                                      !- Minute 1
  16.0000000000001;                       !- Value Until Time 1

OS:Schedule:Day,
  {36ce59f3-a6f9-4967-a37e-4686f682bd8f}, !- Handle
  0800|1600|PrimarySchool|Restroom|htg_setpoint Summer Design Day, !- Name
  {67ca952e-6827-4642-a8c5-57275fdebcff}, !- Schedule Type Limits Name
  ,                                       !- Interpolate to Timestep
  24,                                     !- Hour 1
  0,                                      !- Minute 1
  16.0000000000001;                       !- Value Until Time 1

OS:Schedule:Day,
  {a0338062-e24f-4b99-849b-7b226c262722}, !- Handle
  0800|1600|PrimarySchool|Restroom|htg_setpoint Winter Design Day, !- Name
  {67ca952e-6827-4642-a8c5-57275fdebcff}, !- Schedule Type Limits Name
  ,                                       !- Interpolate to Timestep
  24,                                     !- Hour 1
  0,                                      !- Minute 1
  16.0000000000001;                       !- Value Until Time 1

OS:Schedule:Ruleset,
  {bbdf9948-a309-427c-b4db-fab1e0880bab}, !- Handle
  0800|1600|PrimarySchool|Restroom|clg_setpoint, !- Name
  {de2e9886-16ad-4a8e-92b5-a2e4f194d315}, !- Schedule Type Limits Name
  {08a78f5d-8840-418e-9f74-bb0779fb7f70}, !- Default Day Schedule Name
  {8b3784b1-4a63-4753-8b98-107b94717803}, !- Summer Design Day Schedule Name
  {dbf52709-869e-4cc6-b5a0-28c8e261c038}; !- Winter Design Day Schedule Name

OS:Schedule:Day,
  {08a78f5d-8840-418e-9f74-bb0779fb7f70}, !- Handle
  0800|1600|PrimarySchool|Restroom|clg_setpoint |default, !- Name
  {de2e9886-16ad-4a8e-92b5-a2e4f194d315}, !- Schedule Type Limits Name
  ,                                       !- Interpolate to Timestep
  24,                                     !- Hour 1
  0,                                      !- Minute 1
  27.0000000000001;                       !- Value Until Time 1

OS:Schedule:Day,
  {8b3784b1-4a63-4753-8b98-107b94717803}, !- Handle
  0800|1600|PrimarySchool|Restroom|clg_setpoint Summer Design Day, !- Name
  {de2e9886-16ad-4a8e-92b5-a2e4f194d315}, !- Schedule Type Limits Name
  ,                                       !- Interpolate to Timestep
  24,                                     !- Hour 1
  0,                                      !- Minute 1
  27.0000000000001;                       !- Value Until Time 1

OS:Schedule:Day,
  {dbf52709-869e-4cc6-b5a0-28c8e261c038}, !- Handle
  0800|1600|PrimarySchool|Restroom|clg_setpoint Winter Design Day, !- Name
  {de2e9886-16ad-4a8e-92b5-a2e4f194d315}, !- Schedule Type Limits Name
  ,                                       !- Interpolate to Timestep
  24,                                     !- Hour 1
  0,                                      !- Minute 1
  27.0000000000001;                       !- Value Until Time 1

OS:Schedule:Ruleset,
  {a1773110-c3a2-44b4-a28f-a14d53d50cdc}, !- Handle
  0800|1600|PrimarySchool|default|work_eff, !- Name
  {211dcda6-bf70-44b9-8057-5ca831ecf9e3}, !- Schedule Type Limits Name
  {0febe69e-489c-4b4d-a565-d473894fd68d}, !- Default Day Schedule Name
  {82c84aa7-58e0-4b68-a32e-2a4fb6715107}, !- Summer Design Day Schedule Name
  {478e6d50-5007-4ea5-a980-d2564747cba3}; !- Winter Design Day Schedule Name

OS:ScheduleTypeLimits,
  {211dcda6-bf70-44b9-8057-5ca831ecf9e3}, !- Handle
  Fraction Schedule Type Limits,          !- Name
  0,                                      !- Lower Limit Value {BasedOnField A4}
  1,                                      !- Upper Limit Value {BasedOnField A4}
  Continuous,                             !- Numeric Type
  Dimensionless;                          !- Unit Type

OS:Schedule:Day,
  {0febe69e-489c-4b4d-a565-d473894fd68d}, !- Handle
  0800|1600|PrimarySchool|default|work_eff |default, !- Name
  {211dcda6-bf70-44b9-8057-5ca831ecf9e3}, !- Schedule Type Limits Name
  ,                                       !- Interpolate to Timestep
  24,                                     !- Hour 1
  0,                                      !- Minute 1
  0;                                      !- Value Until Time 1

OS:Schedule:Day,
  {82c84aa7-58e0-4b68-a32e-2a4fb6715107}, !- Handle
  0800|1600|PrimarySchool|default|work_eff Summer Design Day, !- Name
  {211dcda6-bf70-44b9-8057-5ca831ecf9e3}, !- Schedule Type Limits Name
  ,                                       !- Interpolate to Timestep
  24,                                     !- Hour 1
  0,                                      !- Minute 1
  0;                                      !- Value Until Time 1

OS:Schedule:Day,
  {478e6d50-5007-4ea5-a980-d2564747cba3}, !- Handle
  0800|1600|PrimarySchool|default|work_eff Winter Design Day, !- Name
  {211dcda6-bf70-44b9-8057-5ca831ecf9e3}, !- Schedule Type Limits Name
  ,                                       !- Interpolate to Timestep
  24,                                     !- Hour 1
  0,                                      !- Minute 1
  0;                                      !- Value Until Time 1

OS:Schedule:Ruleset,
  {76e35697-b53c-4153-9976-10fac7663fe1}, !- Handle
  0800|1600|PrimarySchool|default|hvac,   !- Name
  {57b2d34f-5fe5-437d-9d85-b6039203d16e}, !- Schedule Type Limits Name
  {b117d486-17e4-47c1-b773-9e1e27539ff7}, !- Default Day Schedule Name
  {33bd4b79-2b2f-4158-9944-6dd0588f4f3b}, !- Summer Design Day Schedule Name