
OS:Version,
  {2a150b67-9a74-4b9c-b566-b23080eeb708}, !- Handle
  1.5.5;                                  !- Version Identifier

OS:ClimateZones,
  {135edfab-17e7-40db-a436-27d385a8cd6d}, !- Handle
  ,                                       !- Active Institution
  ,                                       !- Active Year
  ASHRAE,                                 !- Climate Zone Institution Name 1
  ANSI/ASHRAE Standard 169,               !- Climate Zone Document Name 1
  2006,                                   !- Climate Zone Document Year 1
  ,                                       !- Climate Zone Value 1
  CEC,                                    !- Climate Zone Institution Name 2
  California Climate Zone Descriptions,   !- Climate Zone Document Name 2
  1995,                                   !- Climate Zone Document Year 2
  ;                                       !- Climate Zone Value 2

OS:YearDescription,
  {513d8dda-86cb-442a-b01c-1f7f0e0ac70e}; !- Handle

OS:RadianceParameters,
  {270a96f1-3c86-4b75-a667-cdf22790e2c8}, !- Handle
  1,                                      !- Accumulated Rays per Record
  0,                                      !- Direct Threshold
  1,                                      !- Direct Certainty
  1,                                      !- Direct Jitter
  1,                                      !- Direct Pretest
  6,                                      !- Ambient Bounces VMX
  2,                                      !- Ambient Bounces DMX
  4050,                                   !- Ambient Divisions VMX
  512,                                    !- Ambient Divisions DMX
  256,                                    !- Ambient Supersamples
  0.001,                                  !- Limit Weight VMX
  0.001,                                  !- Limit Weight DMX
  500,                                    !- Klems Sampling Density
  146;                                    !- Sky Discretization Resolution

OS:SimulationControl,
  {2c487a4c-bac9-4ac5-b669-1e49d9da7c2b}, !- Handle
  ,                                       !- Do Zone Sizing Calculation
  ,                                       !- Do System Sizing Calculation
  ,                                       !- Do Plant Sizing Calculation
  No,                                     !- Run Simulation for Sizing Periods
  ,                                       !- Run Simulation for Weather File Run Periods
  0.04,                                   !- Loads Convergence Tolerance Value
  ,                                       !- Temperature Convergence Tolerance Value {deltaC}
  ,                                       !- Solar Distribution
  ,                                       !- Maximum Number of Warmup Days
  2;                                      !- Minimum Number of Warmup Days

OS:Sizing:Parameters,
  {dde5af6f-7923-4600-a28a-7556673a0266}, !- Handle
  1.25,                                   !- Heating Sizing Factor
  1.15;                                   !- Cooling Sizing Factor

OS:ProgramControl,
  {05027a99-f2b3-4aeb-afc6-1425fbb4371d}; !- Handle

OS:Timestep,
  {4ebc9f1e-4707-402e-9844-67eb1ffbd522}, !- Handle
  2;                                      !- Number of Timesteps per Hour

OS:OutputControl:ReportingTolerances,
  {65797aa2-06a9-45fe-b69d-bc6e060399d3}; !- Handle

OS:ConvergenceLimits,
  {9fc11aba-8822-4f3d-970c-46391ba4040d}; !- Handle

OS:ShadowCalculation,
  {ca758bea-4416-4626-9bba-3d8795c79bd6}, !- Handle
  7,                                      !- Calculation Frequency
  15000;                                  !- Maximum Figures in Shadow Overlap Calculations

OS:SurfaceConvectionAlgorithm:Inside,
  {aaabfc36-718a-4ab0-b622-f186ebb45230}, !- Handle
  TARP;                                   !- Algorithm

OS:SurfaceConvectionAlgorithm:Outside,
  {9a0a9f6f-4bbd-4b12-a121-9492a1fcd7d6}, !- Handle
  DOE-2;                                  !- Algorithm

OS:HeatBalanceAlgorithm,
  {9d93e563-e1e0-46d7-9e39-d1c8aceb7212}, !- Handle
  ConductionTransferFunction,             !- Algorithm
  200;                                    !- Surface Temperature Upper Limit {F}

OS:ZoneAirHeatBalanceAlgorithm,
  {8520d93e-310f-4696-9bcd-36228bfdd743}, !- Handle
  AnalyticalSolution;                     !- Algorithm

OS:ZoneAirContaminantBalance,
  {eb5fc3ae-fb22-4160-8fcb-3e3b22b000d3}; !- Handle

OS:ZoneCapacitanceMultiplier:ResearchSpecial,
  {4020ce4f-5a7a-4849-8028-8305d7b751b1}, !- Handle
  ,                                       !- Temperature Capacity Multiplier
  ,                                       !- Humidity Capacity Multiplier
  ;                                       !- Carbon Dioxide Capacity Multiplier

OS:RunPeriod,
  {28df894d-6af9-4fb8-8f56-df1753344aa3}, !- Handle
  Run Period 1,                           !- Name
  1,                                      !- Begin Month
  1,                                      !- Begin Day of Month
  12,                                     !- End Month
  31,                                     !- End Day of Month
  ,                                       !- Use Weather File Holidays and Special Days
  ,                                       !- Use Weather File Daylight Saving Period
  ,                                       !- Apply Weekend Holiday Rule
  ,                                       !- Use Weather File Rain Indicators
  ,                                       !- Use Weather File Snow Indicators
  ;                                       !- Number of Times Runperiod to be Repeated

OS:Building,
  {bf305633-c5a1-4881-9edf-ca5e1a8e1274}, !- Handle
  Building 1,                             !- Name
  ,                                       !- Building Sector Type
  ,                                       !- North Axis {deg}
  ,                                       !- Nominal Floor to Floor Height {m}
  ,                                       !- Space Type Name
  ,                                       !- Default Construction Set Name
  {64bdd7f4-1948-4ee7-80db-ae30e02d487b}, !- Default Schedule Set Name
  ,                                       !- Standards Number of Stories
  ,                                       !- Standards Number of Above Ground Stories
  PrimarySchool;                          !- Standards Building Type

OS:LifeCycleCost:Parameters,
  {231cf8a0-f0e7-4251-a99f-11f0d464e661}, !- Handle
  FEMP,                                   !- Analysis Type
  ,                                       !- Discounting Convention
  ,                                       !- Inflation Approach
  ,                                       !- Real Discount Rate
  ,                                       !- Nominal Discount Rate
  ,                                       !- Inflation
  ,                                       !- Base Date Month
  ,                                       !- Base Date Year
  ,                                       !- Service Date Month
  ,                                       !- Service Date Year
  ,                                       !- Length of Study Period in Years
  ,                                       !- Tax Rate
  ,                                       !- Depreciation Method
  Yes;                                    !- Use NIST Fuel Escalation Rates

OS:Facility,
  {3ba8e45b-b833-44eb-a723-ea6c3946dc96}; !- Handle

OS:SpaceType,
  {06ce005f-eee7-44eb-b022-e47ac8567593}, !- Handle
  PrimarySchool|BlendEdu|DOE Ref Pre-1980|ASHRAE 169-2006-5A, !- Name
  {ee30ae96-7c6e-4a73-b0b9-5baa5b6e1069}, !- Default Construction Set Name
  ,                                       !- Default Schedule Set Name
  {d26ba4ef-9431-43b2-b566-c57a0e7162fb}, !- Group Rendering Name
  {c44bf428-4084-43b4-95d9-d435584fb6ae}, !- Design Specification Outdoor Air Object Name
  PrimarySchool,                          !- Standards Building Type
  BlendEdu;                               !- Standards Space Type

OS:Rendering:Color,
  {d26ba4ef-9431-43b2-b566-c57a0e7162fb}, !- Handle
  Rendering Color 1,                      !- Name
  120,                                    !- Rendering Red Value
  230,                                    !- Rendering Green Value
  199;                                    !- Rendering Blue Value

OS:SpaceType,
  {4ce0e846-c779-41db-b010-571afa7ebfa7}, !- Handle
  PrimarySchool|BlendOff|DOE Ref Pre-1980|ASHRAE 169-2006-5A, !- Name
  {ee30ae96-7c6e-4a73-b0b9-5baa5b6e1069}, !- Default Construction Set Name
  ,                                       !- Default Schedule Set Name
  {60ca719d-ad0d-418d-beb7-ca3bef31c511}, !- Group Rendering Name
  {0aebc6e1-a5d2-4c8b-90f6-feb416b5a34b}, !- Design Specification Outdoor Air Object Name
  PrimarySchool,                          !- Standards Building Type
  BlendOff;                               !- Standards Space Type

OS:Rendering:Color,
  {60ca719d-ad0d-418d-beb7-ca3bef31c511}, !- Handle
  Rendering Color 2,                      !- Name
  120,                                    !- Rendering Red Value
  230,                                    !- Rendering Green Value
  199;                                    !- Rendering Blue Value

OS:SpaceType,
  {2b4e5323-54b3-41b5-b1c8-340727f917ec}, !- Handle
  PrimarySchool|Library|DOE Ref Pre-1980|ASHRAE 169-2006-5A, !- Name
  {ee30ae96-7c6e-4a73-b0b9-5baa5b6e1069}, !- Default Construction Set Name
  {8e056b5c-c79f-48ac-a779-32b25d608798}, !- Default Schedule Set Name
  {7be94706-5be0-46f8-a86c-01b6a05527be}, !- Group Rendering Name
  {a691b71a-f9c7-4984-8fe0-3feef7c85a83}, !- Design Specification Outdoor Air Object Name
  PrimarySchool,                          !- Standards Building Type
  Library;                                !- Standards Space Type

OS:Rendering:Color,
  {7be94706-5be0-46f8-a86c-01b6a05527be}, !- Handle
  Rendering Color 3,                      !- Name
  230,                                    !- Rendering Red Value
  196,                                    !- Rendering Green Value
  120;                                    !- Rendering Blue Value

OS:SpaceType,
  {2ea02d1a-ad17-43d9-8fd0-bb7c7fd6aae1}, !- Handle
  PrimarySchool|Gym|DOE Ref Pre-1980|ASHRAE 169-2006-5A, !- Name
  {ee30ae96-7c6e-4a73-b0b9-5baa5b6e1069}, !- Default Construction Set Name
  {82a890a9-5d45-4099-bc70-96912f72bab0}, !- Default Schedule Set Name
  {7f87d5ee-7a1a-4720-9e8a-af1debb5c72b}, !- Group Rendering Name
  {b07992d3-a1e7-46be-9b66-7541faed24b5}, !- Design Specification Outdoor Air Object Name
  PrimarySchool,                          !- Standards Building Type
  Gym;                                    !- Standards Space Type

OS:Rendering:Color,
  {7f87d5ee-7a1a-4720-9e8a-af1debb5c72b}, !- Handle
  Rendering Color 4,                      !- Name
  154,                                    !- Rendering Red Value
  230,                                    !- Rendering Green Value
  120;                                    !- Rendering Blue Value

OS:SpaceType,
  {482c6a78-49b5-4d73-a917-a36bacaba676}, !- Handle
  PrimarySchool|Cafeteria|DOE Ref Pre-1980|ASHRAE 169-2006-5A, !- Name
  {ee30ae96-7c6e-4a73-b0b9-5baa5b6e1069}, !- Default Construction Set Name
  {06d233d1-621c-48e9-9487-5ce98dbcc1d6}, !- Default Schedule Set Name
  {df4191ef-a1c0-43e1-96a6-181b0792aec1}, !- Group Rendering Name
  {c8be8585-1da3-48de-89f0-315fb80aeb1c}, !- Design Specification Outdoor Air Object Name
  PrimarySchool,                          !- Standards Building Type
  Cafeteria;                              !- Standards Space Type

OS:Rendering:Color,
  {df4191ef-a1c0-43e1-96a6-181b0792aec1}, !- Handle
  Rendering Color 5,                      !- Name
  31,                                     !- Rendering Red Value
  169,                                    !- Rendering Green Value
  34;                                     !- Rendering Blue Value

OS:SpaceType,
  {6ff103a8-9c55-428c-8e84-9d72d8835ed7}, !- Handle
  PrimarySchool|Kitchen|DOE Ref Pre-1980|ASHRAE 169-2006-5A, !- Name
  {ee30ae96-7c6e-4a73-b0b9-5baa5b6e1069}, !- Default Construction Set Name
  {07b172fc-2b35-468f-95de-45c5d512d761}, !- Default Schedule Set Name
  {19d55ec2-05f8-4584-85bc-385f4749b48f}, !- Group Rendering Name
  {66435511-9d93-40c8-be77-02b071271d00}, !- Design Specification Outdoor Air Object Name
  PrimarySchool,                          !- Standards Building Type
  Kitchen;                                !- Standards Space Type

OS:Rendering:Color,
  {19d55ec2-05f8-4584-85bc-385f4749b48f}, !- Handle
  Rendering Color 6,                      !- Name
  78,                                     !- Rendering Red Value
  222,                                    !- Rendering Green Value
  133;                                    !- Rendering Blue Value

OS:Schedule:Ruleset,
  {11fbff7a-53f6-4ace-9c30-edfb7e9d278b}, !- Handle
  0800|1600|PrimarySchool|default|hoo,    !- Name
  {509bbc65-a548-4d7f-8403-e72e1db10a84}, !- Schedule Type Limits Name
  {d628cc24-9729-4e65-9ec9-6fda693a9e16}, !- Default Day Schedule Name
  {1472a915-2edc-4a00-83bf-dbead8cd4064}, !- Summer Design Day Schedule Name
  {93c43792-89a3-4f6d-a243-191251136a19}; !- Winter Design Day Schedule Name

OS:Schedule:Day,
  {d628cc24-9729-4e65-9ec9-6fda693a9e16}, !- Handle
  0800|1600|PrimarySchool|default|hoo Schedule Week Day, !- Name
  {509bbc65-a548-4d7f-8403-e72e1db10a84}, !- Schedule Type Limits Name
  ,                                       !- Interpolate to Timestep
  8,                                      !- Hour 1
  0,                                      !- Minute 1
  0,                                      !- Value Until Time 1
  16,                                     !- Hour 2
  0,                                      !- Minute 2
  1,                                      !- Value Until Time 2
  24,                                     !- Hour 3
  0,                                      !- Minute 3
  0;                                      !- Value Until Time 3

OS:Schedule:Day,
  {13c58c23-195e-4463-a63b-1f6d7e5ffd02}, !- Handle
  Schedule Day 2,                         !- Name
  ,                                       !- Schedule Type Limits Name
  ,                                       !- Interpolate to Timestep
  24,                                     !- Hour 1
  0,                                      !- Minute 1
  0;                                      !- Value Until Time 1

OS:Schedule:Day,
  {93c43792-89a3-4f6d-a243-191251136a19}, !- Handle
  0800|1600|PrimarySchool|default|hoo Winter Design Day, !- Name
  {509bbc65-a548-4d7f-8403-e72e1db10a84}, !- Schedule Type Limits Name
  ,                                       !- Interpolate to Timestep
  24,                                     !- Hour 1
  0,                                      !- Minute 1
  0;                                      !- Value Until Time 1

OS:Schedule:Day,
  {a8bd491b-ad63-4d00-adf6-77f058527d46}, !- Handle
  Schedule Day 3,                         !- Name
  ,                                       !- Schedule Type Limits Name
  ,                                       !- Interpolate to Timestep
  24,                                     !- Hour 1
  0,                                      !- Minute 1
  0;                                      !- Value Until Time 1

OS:Schedule:Day,
  {1472a915-2edc-4a00-83bf-dbead8cd4064}, !- Handle
  0800|1600|PrimarySchool|default|hoo Summer Design Day, !- Name
  {509bbc65-a548-4d7f-8403-e72e1db10a84}, !- Schedule Type Limits Name
  ,                                       !- Interpolate to Timestep
  24,                                     !- Hour 1
  0,                                      !- Minute 1
  1;                                      !- Value Until Time 1

OS:DefaultScheduleSet,
  {64bdd7f4-1948-4ee7-80db-ae30e02d487b}, !- Handle
  Building Hours of Operation,            !- Name
  {11fbff7a-53f6-4ace-9c30-edfb7e9d278b}, !- Hours of Operation Schedule Name
  ,                                       !- Number of People Schedule Name
  ,                                       !- People Activity Level Schedule Name
  ,                                       !- Lighting Schedule Name
  ,                                       !- Electric Equipment Schedule Name
  ,                                       !- Gas Equipment Schedule Name
  ,                                       !- Hot Water Equipment Schedule Name
  ,                                       !- Infiltration Schedule Name
  ,                                       !- Steam Equipment Schedule Name
  ;                                       !- Other Equipment Schedule Name

OS:ScheduleTypeLimits,
  {509bbc65-a548-4d7f-8403-e72e1db10a84}, !- Handle
  OnOff,                                  !- Name
  0,                                      !- Lower Limit Value {BasedOnField A4}
  1,                                      !- Upper Limit Value {BasedOnField A4}
  Discrete,                               !- Numeric Type
  Availability;                           !- Unit Type

OS:Schedule:Ruleset,
  {abf456c0-6643-43af-b3c5-cf111b3dbc89}, !- Handle
  0800|1600|PrimarySchool|default|ext_lighting, !- Name
  {4554d7d3-7653-4de6-965c-957554e46079}, !- Schedule Type Limits Name
  {995f4d9c-4814-47cb-984d-80753152945c}, !- Default Day Schedule Name
  {e97aaf89-4eea-48c1-bded-7efc0677a895}, !- Summer Design Day Schedule Name
  {d5ed7d1a-f97d-44d6-9b12-9965ae5923cd}; !- Winter Design Day Schedule Name

OS:ScheduleTypeLimits,
  {4554d7d3-7653-4de6-965c-957554e46079}, !- Handle
  Lights Schedule Type Limits,            !- Name
  0,                                      !- Lower Limit Value {BasedOnField A4}
  1,                                      !- Upper Limit Value {BasedOnField A4}
  Continuous,                             !- Numeric Type
  Dimensionless;                          !- Unit Type

OS:Schedule:Day,
  {995f4d9c-4814-47cb-984d-80753152945c}, !- Handle
  0800|1600|PrimarySchool|default|ext_lighting |default, !- Name
  {4554d7d3-7653-4de6-965c-957554e46079}, !- Schedule Type Limits Name
  ,                                       !- Interpolate to Timestep
  24,                                     !- Hour 1
  0,                                      !- Minute 1
  1;                                      !- Value Until Time 1

OS:Schedule:Day,
  {e97aaf89-4eea-48c1-bded-7efc0677a895}, !- Handle
  0800|1600|PrimarySchool|default|ext_lighting Summer Design Day, !- Name
  {4554d7d3-7653-4de6-965c-957554e46079}, !- Schedule Type Limits Name
  ,                                       !- Interpolate to Timestep
  24,                                     !- Hour 1
  0,                                      !- Minute 1
  1;                                      !- Value Until Time 1

OS:Schedule:Day,
  {d5ed7d1a-f97d-44d6-9b12-9965ae5923cd}, !- Handle
  0800|1600|PrimarySchool|default|ext_lighting Winter Design Day, !- Name
  {4554d7d3-7653-4de6-965c-957554e46079}, !- Schedule Type Limits Name
  ,                                       !- Interpolate to Timestep
  24,                                     !- Hour 1
  0,                                      !- Minute 1
  1;                                      !- Value Until Time 1

OS:Schedule:Ruleset,
  {a40de6c9-f212-43d9-bf92-e8ea35946f04}, !- Handle
  0800|1600|PrimarySchool|default|rh,     !- Name
  {7f24d5f9-447f-4903-864c-f73d42cc689b}, !- Schedule Type Limits Name
  {7ae3b5f6-8f1b-4f2d-8fe4-dc2871a5ee14}, !- Default Day Schedule Name
  {24428016-9cad-4bd6-802b-eeb234383b24}, !- Summer Design Day Schedule Name
  {14395713-1cbc-4db2-abfc-6ce74cc99cdb}; !- Winter Design Day Schedule Name

OS:ScheduleTypeLimits,
  {7f24d5f9-447f-4903-864c-f73d42cc689b}, !- Handle
  Dimensionless Schedule Type Limits,     !- Name
  ,                                       !- Lower Limit Value {BasedOnField A4}
  ,                                       !- Upper Limit Value {BasedOnField A4}
  Continuous,                             !- Numeric Type
  Dimensionless;                          !- Unit Type

OS:Schedule:Day,
  {7ae3b5f6-8f1b-4f2d-8fe4-dc2871a5ee14}, !- Handle
  0800|1600|PrimarySchool|default|rh |default, !- Name
  {7f24d5f9-447f-4903-864c-f73d42cc689b}, !- Schedule Type Limits Name
  ,                                       !- Interpolate to Timestep
  24,                                     !- Hour 1
  0,                                      !- Minute 1
  50;                                     !- Value Until Time 1

OS:Schedule:Day,
  {24428016-9cad-4bd6-802b-eeb234383b24}, !- Handle
  0800|1600|PrimarySchool|default|rh Summer Design Day, !- Name
  {7f24d5f9-447f-4903-864c-f73d42cc689b}, !- Schedule Type Limits Name
  ,                                       !- Interpolate to Timestep
  24,                                     !- Hour 1
  0,                                      !- Minute 1
  50;                                     !- Value Until Time 1

OS:Schedule:Day,
  {14395713-1cbc-4db2-abfc-6ce74cc99cdb}, !- Handle
  0800|1600|PrimarySchool|default|rh Winter Design Day, !- Name
  {7f24d5f9-447f-4903-864c-f73d42cc689b}, !- Schedule Type Limits Name
  ,                                       !- Interpolate to Timestep
  24,                                     !- Hour 1
  0,                                      !- Minute 1
  50;                                     !- Value Until Time 1

OS:Schedule:Ruleset,
  {d4417c96-3709-4cf3-af36-9a61eb618c09}, !- Handle
  0800|1600|PrimarySchool|Corridor|clg_setpoint, !- Name
  {259840f3-3717-4ae9-a6a8-a77f6c0c345d}, !- Schedule Type Limits Name
  {dc1bf216-b527-405f-a2ef-f7e83a204953}, !- Default Day Schedule Name
  {99589575-41da-4b4f-b602-8ee9f5579f14}, !- Summer Design Day Schedule Name
  {77c73132-fb57-4407-8aca-4b5c9bf9f17b}; !- Winter Design Day Schedule Name

OS:ScheduleTypeLimits,
  {259840f3-3717-4ae9-a6a8-a77f6c0c345d}, !- Handle
  Thermostat Cooling Setpoint Schedule Type Limits, !- Name
  0,                                      !- Lower Limit Value {BasedOnField A4}
  100,                                    !- Upper Limit Value {BasedOnField A4}
  Continuous,                             !- Numeric Type
  Temperature;                            !- Unit Type

OS:Schedule:Day,
  {dc1bf216-b527-405f-a2ef-f7e83a204953}, !- Handle
  0800|1600|PrimarySchool|Corridor|clg_setpoint |default, !- Name
  {259840f3-3717-4ae9-a6a8-a77f6c0c345d}, !- Schedule Type Limits Name
  ,                                       !- Interpolate to Timestep
  24,                                     !- Hour 1
  0,                                      !- Minute 1
  27.0000000000001;                       !- Value Until Time 1

OS:Schedule:Day,
  {99589575-41da-4b4f-b602-8ee9f5579f14}, !- Handle
  0800|1600|PrimarySchool|Corridor|clg_setpoint Summer Design Day, !- Name
  {259840f3-3717-4ae9-a6a8-a77f6c0c345d}, !- Schedule Type Limits Name
  ,                                       !- Interpolate to Timestep
  24,                                     !- Hour 1
  0,                                      !- Minute 1
  27.0000000000001;                       !- Value Until Time 1

OS:Schedule:Day,
  {77c73132-fb57-4407-8aca-4b5c9bf9f17b}, !- Handle
  0800|1600|PrimarySchool|Corridor|clg_setpoint Winter Design Day, !- Name
  {259840f3-3717-4ae9-a6a8-a77f6c0c345d}, !- Schedule Type Limits Name
  ,                                       !- Interpolate to Timestep
  24,                                     !- Hour 1
  0,                                      !- Minute 1
  27.0000000000001;                       !- Value Until Time 1

OS:Schedule:Ruleset,
  {cce38b9f-95ac-457c-aecd-cdc979dfff0c}, !- Handle
  0800|1600|PrimarySchool|Restroom|htg_setpoint, !- Name
  {b8b1dcf8-edcc-4742-b510-7aae952c08d0}, !- Schedule Type Limits Name
  {cc8fec02-ce80-482b-adff-3e5b3d8e99fe}, !- Default Day Schedule Name
  {07580f97-0975-4597-a5b5-a31f34505f64}, !- Summer Design Day Schedule Name
  {62c62389-78f8-4e40-a869-b907254fd614}; !- Winter Design Day Schedule Name

OS:ScheduleTypeLimits,
  {b8b1dcf8-edcc-4742-b510-7aae952c08d0}, !- Handle
  Thermostat Heating Setpoint Schedule Type Limits, !- Name
  0,                                      !- Lower Limit Value {BasedOnField A4}
  100,                                    !- Upper Limit Value {BasedOnField A4}
  Continuous,                             !- Numeric Type
  Temperature;                            !- Unit Type

OS:Schedule:Day,
  {cc8fec02-ce80-482b-adff-3e5b3d8e99fe}, !- Handle
  0800|1600|PrimarySchool|Restroom|htg_setpoint |default, !- Name
  {b8b1dcf8-edcc-4742-b510-7aae952c08d0}, !- Schedule Type Limits Name
  ,                                       !- Interpolate to Timestep
  24,                                     !- Hour 1
  0,                                      !- Minute 1
  16.0000000000001;                       !- Value Until Time 1

OS:Schedule:Day,
  {07580f97-0975-4597-a5b5-a31f34505f64}, !- Handle
  0800|1600|PrimarySchool|Restroom|htg_setpoint Summer Design Day, !- Name
  {b8b1dcf8-edcc-4742-b510-7aae952c08d0}, !- Schedule Type Limits Name
  ,                                       !- Interpolate to Timestep
  24,                                     !- Hour 1
  0,                                      !- Minute 1
  16.0000000000001;                       !- Value Until Time 1

OS:Schedule:Day,
  {62c62389-78f8-4e40-a869-b907254fd614}, !- Handle
  0800|1600|PrimarySchool|Restroom|htg_setpoint Winter Design Day, !- Name
  {b8b1dcf8-edcc-4742-b510-7aae952c08d0}, !- Schedule Type Limits Name
  ,                                       !- Interpolate to Timestep
  24,                                     !- Hour 1
  0,                                      !- Minute 1
  16.0000000000001;                       !- Value Until Time 1

OS:Schedule:Ruleset,
  {58355377-3e3f-444c-96c4-54cd9f485892}, !- Handle
  0800|1600|PrimarySchool|Restroom|clg_setpoint, !- Name
  {259840f3-3717-4ae9-a6a8-a77f6c0c345d}, !- Schedule Type Limits Name
  {081cb61b-82cf-4247-9ba3-7d203ba6be45}, !- Default Day Schedule Name
  {54ddd480-f23c-4c9f-be6b-4e770e6f78e7}, !- Summer Design Day Schedule Name
  {4abac3dc-15bb-43ee-b5a1-92a5187ffa9b}; !- Winter Design Day Schedule Name

OS:Schedule:Day,
  {081cb61b-82cf-4247-9ba3-7d203ba6be45}, !- Handle
  0800|1600|PrimarySchool|Restroom|clg_setpoint |default, !- Name
  {259840f3-3717-4ae9-a6a8-a77f6c0c345d}, !- Schedule Type Limits Name
  ,                                       !- Interpolate to Timestep
  24,                                     !- Hour 1
  0,                                      !- Minute 1
  27.0000000000001;                       !- Value Until Time 1

OS:Schedule:Day,
  {54ddd480-f23c-4c9f-be6b-4e770e6f78e7}, !- Handle
  0800|1600|PrimarySchool|Restroom|clg_setpoint Summer Design Day, !- Name
  {259840f3-3717-4ae9-a6a8-a77f6c0c345d}, !- Schedule Type Limits Name
  ,                                       !- Interpolate to Timestep
  24,                                     !- Hour 1
  0,                                      !- Minute 1
  27.0000000000001;                       !- Value Until Time 1

OS:Schedule:Day,
  {4abac3dc-15bb-43ee-b5a1-92a5187ffa9b}, !- Handle
  0800|1600|PrimarySchool|Restroom|clg_setpoint Winter Design Day, !- Name
  {259840f3-3717-4ae9-a6a8-a77f6c0c345d}, !- Schedule Type Limits Name
  ,                                       !- Interpolate to Timestep
  24,                                     !- Hour 1
  0,                                      !- Minute 1
  27.0000000000001;                       !- Value Until Time 1

OS:Schedule:Ruleset,
  {a47c2e24-bee0-4aec-9ccb-fdc580b1fc75}, !- Handle
  0800|1600|PrimarySchool|default|work_eff, !- Name
  {72d2e78f-fed4-42a6-8c8e-3c084f798fae}, !- Schedule Type Limits Name
  {5ddf12d6-0720-4fcf-a7e6-9234324026f0}, !- Default Day Schedule Name
  {8641805f-1343-4ef5-aeb5-f101a191f2ed}, !- Summer Design Day Schedule Name
  {94a1620f-40eb-4eee-9d4a-ec752cd71c02}; !- Winter Design Day Schedule Name

OS:ScheduleTypeLimits,
  {72d2e78f-fed4-42a6-8c8e-3c084f798fae}, !- Handle
  Fraction Schedule Type Limits,          !- Name
  0,                                      !- Lower Limit Value {BasedOnField A4}
  1,                                      !- Upper Limit Value {BasedOnField A4}
  Continuous,                             !- Numeric Type
  Dimensionless;                          !- Unit Type

OS:Schedule:Day,
  {5ddf12d6-0720-4fcf-a7e6-9234324026f0}, !- Handle
  0800|1600|PrimarySchool|default|work_eff |default, !- Name
  {72d2e78f-fed4-42a6-8c8e-3c084f798fae}, !- Schedule Type Limits Name
  ,                                       !- Interpolate to Timestep
  24,                                     !- Hour 1
  0,                                      !- Minute 1
  0;                                      !- Value Until Time 1

OS:Schedule:Day,
  {8641805f-1343-4ef5-aeb5-f101a191f2ed}, !- Handle
  0800|1600|PrimarySchool|default|work_eff Summer Design Day, !- Name
  {72d2e78f-fed4-42a6-8c8e-3c084f798fae}, !- Schedule Type Limits Name
  ,                                       !- Interpolate to Timestep
  24,                                     !- Hour 1
  0,                                      !- Minute 1
  0;                                      !- Value Until Time 1

OS:Schedule:Day,
  {94a1620f-40eb-4eee-9d4a-ec752cd71c02}, !- Handle
  0800|1600|PrimarySchool|default|work_eff Winter Design Day, !- Name
  {72d2e78f-fed4-42a6-8c8e-3c084f798fae}, !- Schedule Type Limits Name
  ,                                       !- Interpolate to Timestep
  24,                                     !- Hour 1
  0,                                      !- Minute 1
  0;                                      !- Value Until Time 1

OS:Schedule:Ruleset,
  {ac9c1df5-a317-4dbf-80bf-6c2670368a84}, !- Handle
  0800|1600|PrimarySchool|default|hvac,   !- Name
  {e336699f-8b6b-461c-ada9-ffa527f52512}, !- Schedule Type Limits Name
  {57e7b1ff-50a9-4994-b1f8-7e045f9effd6}, !- Default Day Schedule Name
  {7ac29925-f151-44b3-b989-81019d68dd04}, !- Summer Design Day Schedule Name