
OS:Version,
  {6db6edcc-e6b6-4eee-99f1-2fec942a3a17}, !- Handle
  1.5.5;                                  !- Version Identifier

OS:ClimateZones,
  {135edfab-17e7-40db-a436-27d385a8cd6d}, !- Handle
  ,                                       !- Active Institution
  ,                                       !- Active Year
  ASHRAE,                                 !- Climate Zone Institution Name 1
  ANSI/ASHRAE Standard 169,               !- Climate Zone Document Name 1
  2006,                                   !- Climate Zone Document Year 1
  ,                                       !- Climate Zone Value 1
  CEC,                                    !- Climate Zone Institution Name 2
  California Climate Zone Descriptions,   !- Climate Zone Document Name 2
  1995,                                   !- Climate Zone Document Year 2
  ;                                       !- Climate Zone Value 2

OS:YearDescription,
  {513d8dda-86cb-442a-b01c-1f7f0e0ac70e}; !- Handle

OS:RadianceParameters,
  {270a96f1-3c86-4b75-a667-cdf22790e2c8}, !- Handle
  1,                                      !- Accumulated Rays per Record
  0,                                      !- Direct Threshold
  1,                                      !- Direct Certainty
  1,                                      !- Direct Jitter
  1,                                      !- Direct Pretest
  6,                                      !- Ambient Bounces VMX
  2,                                      !- Ambient Bounces DMX
  4050,                                   !- Ambient Divisions VMX
  512,                                    !- Ambient Divisions DMX
  256,                                    !- Ambient Supersamples
  0.001,                                  !- Limit Weight VMX
  0.001,                                  !- Limit Weight DMX
  500,                                    !- Klems Sampling Density
  146;                                    !- Sky Discretization Resolution

OS:SimulationControl,
  {2c487a4c-bac9-4ac5-b669-1e49d9da7c2b}, !- Handle
  ,                                       !- Do Zone Sizing Calculation
  ,                                       !- Do System Sizing Calculation
  ,                                       !- Do Plant Sizing Calculation
  No,                                     !- Run Simulation for Sizing Periods
  ,                                       !- Run Simulation for Weather File Run Periods
  0.04,                                   !- Loads Convergence Tolerance Value
  ,                                       !- Temperature Convergence Tolerance Value {deltaC}
  ,                                       !- Solar Distribution
  ,                                       !- Maximum Number of Warmup Days
  2;                                      !- Minimum Number of Warmup Days

OS:Sizing:Parameters,
  {dde5af6f-7923-4600-a28a-7556673a0266}, !- Handle
  1.25,                                   !- Heating Sizing Factor
  1.15;                                   !- Cooling Sizing Factor

OS:ProgramControl,
  {05027a99-f2b3-4aeb-afc6-1425fbb4371d}; !- Handle

OS:Timestep,
  {4ebc9f1e-4707-402e-9844-67eb1ffbd522}, !- Handle
  2;                                      !- Number of Timesteps per Hour

OS:OutputControl:ReportingTolerances,
  {65797aa2-06a9-45fe-b69d-bc6e060399d3}; !- Handle

OS:ConvergenceLimits,
  {9fc11aba-8822-4f3d-970c-46391ba4040d}; !- Handle

OS:ShadowCalculation,
  {ca758bea-4416-4626-9bba-3d8795c79bd6}, !- Handle
  7,                                      !- Calculation Frequency
  15000;                                  !- Maximum Figures in Shadow Overlap Calculations

OS:SurfaceConvectionAlgorithm:Inside,
  {aaabfc36-718a-4ab0-b622-f186ebb45230}, !- Handle
  TARP;                                   !- Algorithm

OS:SurfaceConvectionAlgorithm:Outside,
  {9a0a9f6f-4bbd-4b12-a121-9492a1fcd7d6}, !- Handle
  DOE-2;                                  !- Algorithm

OS:HeatBalanceAlgorithm,
  {9d93e563-e1e0-46d7-9e39-d1c8aceb7212}, !- Handle
  ConductionTransferFunction,             !- Algorithm
  200;                                    !- Surface Temperature Upper Limit {F}

OS:ZoneAirHeatBalanceAlgorithm,
  {8520d93e-310f-4696-9bcd-36228bfdd743}, !- Handle
  AnalyticalSolution;                     !- Algorithm

OS:ZoneAirContaminantBalance,
  {eb5fc3ae-fb22-4160-8fcb-3e3b22b000d3}; !- Handle

OS:ZoneCapacitanceMultiplier:ResearchSpecial,
  {4020ce4f-5a7a-4849-8028-8305d7b751b1}, !- Handle
  ,                                       !- Temperature Capacity Multiplier
  ,                                       !- Humidity Capacity Multiplier
  ;                                       !- Carbon Dioxide Capacity Multiplier

OS:RunPeriod,
  {28df894d-6af9-4fb8-8f56-df1753344aa3}, !- Handle
  Run Period 1,                           !- Name
  1,                                      !- Begin Month
  1,                                      !- Begin Day of Month
  12,                                     !- End Month
  31,                                     !- End Day of Month
  ,                                       !- Use Weather File Holidays and Special Days
  ,                                       !- Use Weather File Daylight Saving Period
  ,                                       !- Apply Weekend Holiday Rule
  ,                                       !- Use Weather File Rain Indicators
  ,                                       !- Use Weather File Snow Indicators
  ;                                       !- Number of Times Runperiod to be Repeated

OS:Building,
  {bf305633-c5a1-4881-9edf-ca5e1a8e1274}, !- Handle
  Building 1,                             !- Name
  ,                                       !- Building Sector Type
  ,                                       !- North Axis {deg}
  ,                                       !- Nominal Floor to Floor Height {m}
  ,                                       !- Space Type Name
  ,                                       !- Default Construction Set Name
  {ac857a39-c687-475d-836c-4280f2e9c7ed}, !- Default Schedule Set Name
  ,                                       !- Standards Number of Stories
  ,                                       !- Standards Number of Above Ground Stories
  QuickServiceRestaurant;                 !- Standards Building Type

OS:LifeCycleCost:Parameters,
  {231cf8a0-f0e7-4251-a99f-11f0d464e661}, !- Handle
  FEMP,                                   !- Analysis Type
  ,                                       !- Discounting Convention
  ,                                       !- Inflation Approach
  ,                                       !- Real Discount Rate
  ,                                       !- Nominal Discount Rate
  ,                                       !- Inflation
  ,                                       !- Base Date Month
  ,                                       !- Base Date Year
  ,                                       !- Service Date Month
  ,                                       !- Service Date Year
  ,                                       !- Length of Study Period in Years
  ,                                       !- Tax Rate
  ,                                       !- Depreciation Method
  Yes;                                    !- Use NIST Fuel Escalation Rates

OS:Facility,
  {3ba8e45b-b833-44eb-a723-ea6c3946dc96}; !- Handle

OS:SpaceType,
  {d4871438-973c-4dad-802e-2a6b3c2529c1}, !- Handle
  QuickServiceRestaurant|Dining|DOE Ref Pre-1980|ASHRAE 169-2006-5A, !- Name
  {cd143c42-3131-4e93-bb85-80cf5f30ef9e}, !- Default Construction Set Name
  {284c7542-1e82-4686-b2bf-373d2765d9ab}, !- Default Schedule Set Name
  {f739d923-8980-4022-a83f-0cee8575e1a3}, !- Group Rendering Name
  {e2764e5b-2eed-4f7d-8fd4-bbe7229d9ebd}, !- Design Specification Outdoor Air Object Name
  QuickServiceRestaurant,                 !- Standards Building Type
  Dining;                                 !- Standards Space Type

OS:Rendering:Color,
  {f739d923-8980-4022-a83f-0cee8575e1a3}, !- Handle
  Rendering Color 1,                      !- Name
  31,                                     !- Rendering Red Value
  169,                                    !- Rendering Green Value
  34;                                     !- Rendering Blue Value

OS:SpaceType,
  {e1d26c94-b309-46af-97fb-abeae59f9334}, !- Handle
  QuickServiceRestaurant|Kitchen|DOE Ref Pre-1980|ASHRAE 169-2006-5A, !- Name
  {cd143c42-3131-4e93-bb85-80cf5f30ef9e}, !- Default Construction Set Name
  {79532ffe-2a80-420b-a7a1-10df47b9a4d1}, !- Default Schedule Set Name
  {96922cb4-e212-4304-9e3e-1c4b11e67ab9}, !- Group Rendering Name
  {37e4afca-99e2-4d6a-8540-213fb2fcd54c}, !- Design Specification Outdoor Air Object Name
  QuickServiceRestaurant,                 !- Standards Building Type
  Kitchen;                                !- Standards Space Type

OS:Rendering:Color,
  {96922cb4-e212-4304-9e3e-1c4b11e67ab9}, !- Handle
  Rendering Color 2,                      !- Name
  78,                                     !- Rendering Red Value
  222,                                    !- Rendering Green Value
  133;                                    !- Rendering Blue Value

OS:Schedule:Ruleset,
  {f7db14b5-6844-4001-880b-53b71d04acca}, !- Handle
  0700|2300|QuickServiceRestaurant|default|hoo, !- Name
  {5af75d45-d176-46cd-a52d-22d9bcbd998b}, !- Schedule Type Limits Name
  {2c14ea44-cb24-4a50-b84a-132db33602c8}, !- Default Day Schedule Name
  {ad0f7a0c-2786-4a57-8505-5acafb786d89}, !- Summer Design Day Schedule Name
  {8d44aa8e-4659-47b1-bf32-79cabc185eb0}; !- Winter Design Day Schedule Name

OS:Schedule:Day,
  {2c14ea44-cb24-4a50-b84a-132db33602c8}, !- Handle
  0700|2300|QuickServiceRestaurant|default|hoo Schedule Week Day, !- Name
  {5af75d45-d176-46cd-a52d-22d9bcbd998b}, !- Schedule Type Limits Name
  ,                                       !- Interpolate to Timestep
  7,                                      !- Hour 1
  0,                                      !- Minute 1
  0,                                      !- Value Until Time 1
  23,                                     !- Hour 2
  0,                                      !- Minute 2
  1,                                      !- Value Until Time 2
  24,                                     !- Hour 3
  0,                                      !- Minute 3
  0;                                      !- Value Until Time 3

OS:Schedule:Day,
  {378d05be-d7ed-4445-a444-b097601e8312}, !- Handle
  Schedule Day 2,                         !- Name
  ,                                       !- Schedule Type Limits Name
  ,                                       !- Interpolate to Timestep
  24,                                     !- Hour 1
  0,                                      !- Minute 1
  0;                                      !- Value Until Time 1

OS:Schedule:Day,
  {8d44aa8e-4659-47b1-bf32-79cabc185eb0}, !- Handle
  0700|2300|QuickServiceRestaurant|default|hoo Winter Design Day, !- Name
  {5af75d45-d176-46cd-a52d-22d9bcbd998b}, !- Schedule Type Limits Name
  ,                                       !- Interpolate to Timestep
  24,                                     !- Hour 1
  0,                                      !- Minute 1
  0;                                      !- Value Until Time 1

OS:Schedule:Day,
  {137d642b-8c6a-4882-8aef-818109fb60b7}, !- Handle
  Schedule Day 3,                         !- Name
  ,                                       !- Schedule Type Limits Name
  ,                                       !- Interpolate to Timestep
  24,                                     !- Hour 1
  0,                                      !- Minute 1
  0;                                      !- Value Until Time 1

OS:Schedule:Day,
  {ad0f7a0c-2786-4a57-8505-5acafb786d89}, !- Handle
  0700|2300|QuickServiceRestaurant|default|hoo Summer Design Day, !- Name
  {5af75d45-d176-46cd-a52d-22d9bcbd998b}, !- Schedule Type Limits Name
  ,                                       !- Interpolate to Timestep
  24,                                     !- Hour 1
  0,                                      !- Minute 1
  1;                                      !- Value Until Time 1

OS:DefaultScheduleSet,
  {ac857a39-c687-475d-836c-4280f2e9c7ed}, !- Handle
  Building Hours of Operation,            !- Name
  {f7db14b5-6844-4001-880b-53b71d04acca}, !- Hours of Operation Schedule Name
  ,                                       !- Number of People Schedule Name
  ,                                       !- People Activity Level Schedule Name
  ,                                       !- Lighting Schedule Name
  ,                                       !- Electric Equipment Schedule Name
  ,                                       !- Gas Equipment Schedule Name
  ,                                       !- Hot Water Equipment Schedule Name
  ,                                       !- Infiltration Schedule Name
  ,                                       !- Steam Equipment Schedule Name
  ;                                       !- Other Equipment Schedule Name

OS:ScheduleTypeLimits,
  {5af75d45-d176-46cd-a52d-22d9bcbd998b}, !- Handle
  OnOff,                                  !- Name
  0,                                      !- Lower Limit Value {BasedOnField A4}
  1,                                      !- Upper Limit Value {BasedOnField A4}
  Discrete,                               !- Numeric Type
  Availability;                           !- Unit Type

OS:Schedule:Ruleset,
  {9e6863cf-faab-464d-bfb6-530e9371681a}, !- Handle
  0700|2300|QuickServiceRestaurant|default|clothing, !- Name
  {443b7fd5-d3dd-45f3-b7d5-a3201e5c4210}, !- Schedule Type Limits Name
  {22cc361e-f6eb-4f26-8127-699ec2927545}, !- Default Day Schedule Name
  {a3e0c538-4ade-47a0-aeee-6a017188787f}, !- Summer Design Day Schedule Name
  {931c3674-d567-4b38-98df-ed3b9a4c0199}; !- Winter Design Day Schedule Name

OS:ScheduleTypeLimits,
  {443b7fd5-d3dd-45f3-b7d5-a3201e5c4210}, !- Handle
  Dimensionless Schedule Type Limits,     !- Name
  ,                                       !- Lower Limit Value {BasedOnField A4}
  ,                                       !- Upper Limit Value {BasedOnField A4}
  Continuous,                             !- Numeric Type
  Dimensionless;                          !- Unit Type

OS:Schedule:Day,
  {22cc361e-f6eb-4f26-8127-699ec2927545}, !- Handle
  0700|2300|QuickServiceRestaurant|default|clothing |default, !- Name
  {443b7fd5-d3dd-45f3-b7d5-a3201e5c4210}, !- Schedule Type Limits Name
  ,                                       !- Interpolate to Timestep
  24,                                     !- Hour 1
  0,                                      !- Minute 1
  1;                                      !- Value Until Time 1

OS:Schedule:Day,
  {a3e0c538-4ade-47a0-aeee-6a017188787f}, !- Handle
  0700|2300|QuickServiceRestaurant|default|clothing Summer Design Day, !- Name
  {443b7fd5-d3dd-45f3-b7d5-a3201e5c4210}, !- Schedule Type Limits Name
  ,                                       !- Interpolate to Timestep
  24,                                     !- Hour 1
  0,                                      !- Minute 1
  1;                                      !- Value Until Time 1

OS:Schedule:Day,
  {931c3674-d567-4b38-98df-ed3b9a4c0199}, !- Handle
  0700|2300|QuickServiceRestaurant|default|clothing Winter Design Day, !- Name
  {443b7fd5-d3dd-45f3-b7d5-a3201e5c4210}, !- Schedule Type Limits Name
  ,                                       !- Interpolate to Timestep
  24,                                     !- Hour 1
  0,                                      !- Minute 1
  1;                                      !- Value Until Time 1

OS:Schedule:Rule,
  {171f2488-808b-44c8-836b-3e28bcb2dc47}, !- Handle
  0700|2300|QuickServiceRestaurant|default|clothing |5/1-9/30|Mon/Tue/Wed/Thu/Fri/Sat/Sun Rule, !- Name
  {9e6863cf-faab-464d-bfb6-530e9371681a}, !- Schedule Ruleset Name
  0,                                      !- Rule Order
  {523fe105-620e-4207-8008-bb45ccb85139}, !- Day Schedule Name
  Yes,                                    !- Apply Sunday
  Yes,                                    !- Apply Monday
  Yes,                                    !- Apply Tuesday
  Yes,                                    !- Apply Wednesday
  Yes,                                    !- Apply Thursday
  Yes,                                    !- Apply Friday
  Yes,                                    !- Apply Saturday
  ,                                       !- Apply Holiday
  DateRange,                              !- Date Specification Type
  5,                                      !- Start Month
  1,                                      !- Start Day
  9,                                      !- End Month
  30;                                     !- End Day

OS:Schedule:Day,
  {523fe105-620e-4207-8008-bb45ccb85139}, !- Handle
  0700|2300|QuickServiceRestaurant|default|clothing |5/1-9/30|Mon/Tue/Wed/Thu/Fri/Sat/Sun, !- Name
  {443b7fd5-d3dd-45f3-b7d5-a3201e5c4210}, !- Schedule Type Limits Name
  ,                                       !- Interpolate to Timestep
  24,                                     !- Hour 1
  0,                                      !- Minute 1
  0.5;                                    !- Value Until Time 1

OS:Schedule:Rule,
  {7e1eee2d-16db-4f13-8e71-1b2a9ab75c29}, !- Handle
  0700|2300|QuickServiceRestaurant|default|clothing |10/1-12/31|Mon/Tue/Wed/Thu/Fri/Sat/Sun Rule, !- Name
  {9e6863cf-faab-464d-bfb6-530e9371681a}, !- Schedule Ruleset Name
  1,                                      !- Rule Order
  {fbb9d134-7a30-48a9-99a6-3e7c0ef30232}, !- Day Schedule Name
  Yes,                                    !- Apply Sunday
  Yes,                                    !- Apply Monday
  Yes,                                    !- Apply Tuesday
  Yes,                                    !- Apply Wednesday
  Yes,                                    !- Apply Thursday
  Yes,                                    !- Apply Friday
  Yes,                                    !- Apply Saturday
  ,                                       !- Apply Holiday
  DateRange,                              !- Date Specification Type
  10,                                     !- Start Month
  1,                                      !- Start Day
  12,                                     !- End Month
  31;                                     !- End Day

OS:Schedule:Day,
  {fbb9d134-7a30-48a9-99a6-3e7c0ef30232}, !- Handle
  0700|2300|QuickServiceRestaurant|default|clothing |10/1-12/31|Mon/Tue/Wed/Thu/Fri/Sat/Sun, !- Name
  {443b7fd5-d3dd-45f3-b7d5-a3201e5c4210}, !- Schedule Type Limits Name
  ,                                       !- Interpolate to Timestep
  24,                                     !- Hour 1
  0,                                      !- Minute 1
  1;                                      !- Value Until Time 1

OS:Schedule:Ruleset,
  {94d0393c-e04f-4b00-891f-fbb42362aea4}, !- Handle
  0700|2300|QuickServiceRestaurant|Kitchen|clg_setpoint, !- Name
  {3ab0a758-239f-49d8-a0f2-7587eb2ba134}, !- Schedule Type Limits Name
  {2dc5bba7-d926-49b6-977b-09402bff56fd}, !- Default Day Schedule Name
  {73813cf1-ebcb-44a7-ab25-7f6b996dcb59}, !- Summer Design Day Schedule Name
  {51f2b957-8137-4c77-8ac3-b056684f1ad2}; !- Winter Design Day Schedule Name

OS:ScheduleTypeLimits,
  {3ab0a758-239f-49d8-a0f2-7587eb2ba134}, !- Handle
  Thermostat Cooling Setpoint Schedule Type Limits, !- Name
  0,                                      !- Lower Limit Value {BasedOnField A4}
  100,                                    !- Upper Limit Value {BasedOnField A4}
  Continuous,                             !- Numeric Type
  Temperature;                            !- Unit Type

OS:Schedule:Day,
  {2dc5bba7-d926-49b6-977b-09402bff56fd}, !- Handle
  0700|2300|QuickServiceRestaurant|Kitchen|clg_setpoint |default, !- Name
  {3ab0a758-239f-49d8-a0f2-7587eb2ba134}, !- Schedule Type Limits Name
  ,                                       !- Interpolate to Timestep
  1,                                      !- Hour 1
  0,                                      !- Minute 1
  26.0000000000001,                       !- Value Until Time 1
  5,                                      !- Hour 2
  0,                                      !- Minute 2
  30.0000000000001,                       !- Value Until Time 2
  24,                                     !- Hour 3
  0,                                      !- Minute 3
  26.0000000000001;                       !- Value Until Time 3

OS:Schedule:Day,
  {73813cf1-ebcb-44a7-ab25-7f6b996dcb59}, !- Handle
  0700|2300|QuickServiceRestaurant|Kitchen|clg_setpoint Summer Design Day, !- Name
  {3ab0a758-239f-49d8-a0f2-7587eb2ba134}, !- Schedule Type Limits Name
  ,                                       !- Interpolate to Timestep
  24,                                     !- Hour 1
  0,                                      !- Minute 1
  30.0000000000001;                       !- Value Until Time 1

OS:Schedule:Day,
  {51f2b957-8137-4c77-8ac3-b056684f1ad2}, !- Handle
  0700|2300|QuickServiceRestaurant|Kitchen|clg_setpoint Winter Design Day, !- Name
  {3ab0a758-239f-49d8-a0f2-7587eb2ba134}, !- Schedule Type Limits Name
  ,                                       !- Interpolate to Timestep
  1,                                      !- Hour 1
  0,                                      !- Minute 1
  26.0000000000001,                       !- Value Until Time 1
  5,                                      !- Hour 2
  0,                                      !- Minute 2
  30.0000000000001,                       !- Value Until Time 2
  24,                                     !- Hour 3
  0,                                      !- Minute 3
  26.0000000000001;                       !- Value Until Time 3

OS:Schedule:Ruleset,
  {492dc583-d4d2-48ab-ac29-66468afe32ce}, !- Handle
  0700|2300|QuickServiceRestaurant|default|work_eff, !- Name
  {ce6bde46-45a1-481b-a601-9f98a31cbfbe}, !- Schedule Type Limits Name
  {a85c59de-1df6-451a-a59e-7cd717490959}, !- Default Day Schedule Name
  {2d23434c-7d7c-4f34-97f8-2faf64ec2995}, !- Summer Design Day Schedule Name
  {98071da7-2b44-416b-8286-544d78193779}; !- Winter Design Day Schedule Name

OS:ScheduleTypeLimits,
  {ce6bde46-45a1-481b-a601-9f98a31cbfbe}, !- Handle
  Fraction Schedule Type Limits,          !- Name
  0,                                      !- Lower Limit Value {BasedOnField A4}
  1,                                      !- Upper Limit Value {BasedOnField A4}
  Continuous,                             !- Numeric Type
  Dimensionless;                          !- Unit Type

OS:Schedule:Day,
  {a85c59de-1df6-451a-a59e-7cd717490959}, !- Handle
  0700|2300|QuickServiceRestaurant|default|work_eff |default, !- Name
  {ce6bde46-45a1-481b-a601-9f98a31cbfbe}, !- Schedule Type Limits Name
  ,                                       !- Interpolate to Timestep
  24,                                     !- Hour 1
  0,                                      !- Minute 1
  0;                                      !- Value Until Time 1

OS:Schedule:Day,
  {2d23434c-7d7c-4f34-97f8-2faf64ec2995}, !- Handle
  0700|2300|QuickServiceRestaurant|default|work_eff Summer Design Day, !- Name
  {ce6bde46-45a1-481b-a601-9f98a31cbfbe}, !- Schedule Type Limits Name
  ,                                       !- Interpolate to Timestep
  24,                                     !- Hour 1
  0,                                      !- Minute 1
  0;                                      !- Value Until Time 1

OS:Schedule:Day,
  {98071da7-2b44-416b-8286-544d78193779}, !- Handle
  0700|2300|QuickServiceRestaurant|default|work_eff Winter Design Day, !- Name
  {ce6bde46-45a1-481b-a601-9f98a31cbfbe}, !- Schedule Type Limits Name
  ,                                       !- Interpolate to Timestep
  24,                                     !- Hour 1
  0,                                      !- Minute 1
  0;                                      !- Value Until Time 1

OS:Schedule:Ruleset,
  {aa1f6634-94a8-4161-bf40-1005439abfed}, !- Handle
  0700|2300|QuickServiceRestaurant|default|swh, !- Name
  {af29d552-ee16-4c64-a16b-3144167e1ee2}, !- Schedule Type Limits Name
  {5141223f-e491-402d-9b39-8cb777cc3355}, !- Default Day Schedule Name
  {0dc2d875-cb64-4c91-bd84-c3186e8360b1}, !- Summer Design Day Schedule Name
  {7a27bdc5-9c5a-4ea6-89ef-f69d71012812}; !- Winter Design Day Schedule Name

OS:ScheduleTypeLimits,
  {af29d552-ee16-4c64-a16b-3144167e1ee2}, !- Handle
  Water Use Schedule Type Limits,         !- Name
  0,                                      !- Lower Limit Value {BasedOnField A4}
  1,                                      !- Upper Limit Value {BasedOnField A4}
  Continuous,                             !- Numeric Type
  Dimensionless;                          !- Unit Type

OS:Schedule:Day,
  {5141223f-e491-402d-9b39-8cb777cc3355}, !- Handle
  0700|2300|QuickServiceRestaurant|default|swh |default, !- Name
  {af29d552-ee16-4c64-a16b-3144167e1ee2}, !- Schedule Type Limits Name
  ,                                       !- Interpolate to Timestep
  6,                                      !- Hour 1
  0,                                      !- Minute 1
  0,                                      !- Value Until Time 1
  8,                                      !- Hour 2
  0,                                      !- Minute 2
  0.15,                                   !- Value Until Time 2
  9,                                      !- Hour 3
  0,                                      !- Minute 3
  0.33,                                   !- Value Until Time 3
  10,                                     !- Hour 4
  0,                                      !- Minute 4
  0.13,                                   !- Value Until Time 4
  11,                                     !- Hour 5
  0,                                      !- Minute 5
  0.1,                                    !- Value Until Time 5
  12,                                     !- Hour 6
  0,                                      !- Minute 6
  0.72,                                   !- Value Until Time 6
  13,                                     !- Hour 7
  0,                                      !- Minute 7
  0.31,                                   !- Value Until Time 7
  14,                                     !- Hour 8
  0,                                      !- Minute 8
  0.98,                                   !- Value Until Time 8
  15,                                     !- Hour 9
  0,                                      !- Minute 9
  0.92,                                   !- Value Until Time 9
  16,                                     !- Hour 10
  0,                                      !- Minute 10
  0.22,                                   !- Value Until Time 10
  17,                                     !- Hour 11
  0,                                      !- Minute 11
  0.31,                                   !- Value Until Time 11
  18,                                     !- Hour 12
  0,                                      !- Minute 12
  0.23,                                   !- Value Until Time 12
  19,                                     !- Hour 13
  0,                                      !- Minute 13
  0.16,                                   !- Value Until Time 13
  20,                                     !- Hour 14
  0,                                      !- Minute 14
  0.1,                                    !- Value Until Time 14
  21,                                     !- Hour 15
  0,                                      !- Minute 15
  0.4,                                    !- Value Until Time 15
  22,                                     !- Hour 16
  0,                                      !- Minute 16
  0.42,                                   !- Value Until Time 16
  23,                                     !- Hour 17
  0,                                      !- Minute 17
  0.43,                                   !- Value Until Time 17
  24,                                     !- Hour 18
  0,                                      !- Minute 18
  0.15;                                   !- Value Until Time 18

OS:Schedule:Day,
  {0dc2d875-cb64-4c91-bd84-c3186e8360b1}, !- Handle
  0700|2300|QuickServiceRestaurant|default|swh Summer Design Day, !- Name
  {af29d552-ee16-4c64-a16b-3144167e1ee2}, !- Schedule Type Limits Name
  ,                                       !- Interpolate to Timestep
  6,                                      !- Hour 1
  0,                                      !- Minute 1
  0,                                      !- Value Until Time 1
  8,                                      !- Hour 2
  0,                                      !- Minute 2
  0.15,                                   !- Value Until Time 2
  9,                                      !- Hour 3
  0,                                      !- Minute 3
  0.33,                                   !- Value Until Time 3
  10,                                     !- Hour 4
  0,                                      !- Minute 4
  0.13,                                   !- Value Until Time 4
  11,                                     !- Hour 5
  0,                                      !- Minute 5
  0.1,                                    !- Value Until Time 5
  12,                                     !- Hour 6
  0,                                      !- Minute 6
  0.72,                                   !- Value Until Time 6
  13,                                     !- Hour 7
  0,                                      !- Minute 7
  0.31,                                   !- Value Until Time 7
  14,                                     !- Hour 8
  0,                                      !- Minute 8
  0.98,                                   !- Value Until Time 8
  15,                                     !- Hour 9
  0,                                      !- Minute 9
  0.92,                                   !- Value Until Time 9
  16,                                     !- Hour 10