
OS:Version,
  {93930444-4f1d-42c1-a351-b551a50b9517}, !- Handle
  1.5.5;                                  !- Version Identifier

OS:ClimateZones,
  {135edfab-17e7-40db-a436-27d385a8cd6d}, !- Handle
  ,                                       !- Active Institution
  ,                                       !- Active Year
  ASHRAE,                                 !- Climate Zone Institution Name 1
  ANSI/ASHRAE Standard 169,               !- Climate Zone Document Name 1
  2006,                                   !- Climate Zone Document Year 1
  ,                                       !- Climate Zone Value 1
  CEC,                                    !- Climate Zone Institution Name 2
  California Climate Zone Descriptions,   !- Climate Zone Document Name 2
  1995,                                   !- Climate Zone Document Year 2
  ;                                       !- Climate Zone Value 2

OS:YearDescription,
  {513d8dda-86cb-442a-b01c-1f7f0e0ac70e}; !- Handle

OS:RadianceParameters,
  {270a96f1-3c86-4b75-a667-cdf22790e2c8}, !- Handle
  1,                                      !- Accumulated Rays per Record
  0,                                      !- Direct Threshold
  1,                                      !- Direct Certainty
  1,                                      !- Direct Jitter
  1,                                      !- Direct Pretest
  6,                                      !- Ambient Bounces VMX
  2,                                      !- Ambient Bounces DMX
  4050,                                   !- Ambient Divisions VMX
  512,                                    !- Ambient Divisions DMX
  256,                                    !- Ambient Supersamples
  0.001,                                  !- Limit Weight VMX
  0.001,                                  !- Limit Weight DMX
  500,                                    !- Klems Sampling Density
  146;                                    !- Sky Discretization Resolution

OS:SimulationControl,
  {2c487a4c-bac9-4ac5-b669-1e49d9da7c2b}, !- Handle
  ,                                       !- Do Zone Sizing Calculation
  ,                                       !- Do System Sizing Calculation
  ,                                       !- Do Plant Sizing Calculation
  No,                                     !- Run Simulation for Sizing Periods
  ,                                       !- Run Simulation for Weather File Run Periods
  0.04,                                   !- Loads Convergence Tolerance Value
  ,                                       !- Temperature Convergence Tolerance Value {deltaC}
  ,                                       !- Solar Distribution
  ,                                       !- Maximum Number of Warmup Days
  2;                                      !- Minimum Number of Warmup Days

OS:Sizing:Parameters,
  {dde5af6f-7923-4600-a28a-7556673a0266}, !- Handle
  1.25,                                   !- Heating Sizing Factor
  1.15;                                   !- Cooling Sizing Factor

OS:ProgramControl,
  {05027a99-f2b3-4aeb-afc6-1425fbb4371d}; !- Handle

OS:Timestep,
  {4ebc9f1e-4707-402e-9844-67eb1ffbd522}, !- Handle
  2;                                      !- Number of Timesteps per Hour

OS:OutputControl:ReportingTolerances,
  {65797aa2-06a9-45fe-b69d-bc6e060399d3}; !- Handle

OS:ConvergenceLimits,
  {9fc11aba-8822-4f3d-970c-46391ba4040d}; !- Handle

OS:ShadowCalculation,
  {ca758bea-4416-4626-9bba-3d8795c79bd6}, !- Handle
  7,                                      !- Calculation Frequency
  15000;                                  !- Maximum Figures in Shadow Overlap Calculations

OS:SurfaceConvectionAlgorithm:Inside,
  {aaabfc36-718a-4ab0-b622-f186ebb45230}, !- Handle
  TARP;                                   !- Algorithm

OS:SurfaceConvectionAlgorithm:Outside,
  {9a0a9f6f-4bbd-4b12-a121-9492a1fcd7d6}, !- Handle
  DOE-2;                                  !- Algorithm

OS:HeatBalanceAlgorithm,
  {9d93e563-e1e0-46d7-9e39-d1c8aceb7212}, !- Handle
  ConductionTransferFunction,             !- Algorithm
  200;                                    !- Surface Temperature Upper Limit {F}

OS:ZoneAirHeatBalanceAlgorithm,
  {8520d93e-310f-4696-9bcd-36228bfdd743}, !- Handle
  AnalyticalSolution;                     !- Algorithm

OS:ZoneAirContaminantBalance,
  {eb5fc3ae-fb22-4160-8fcb-3e3b22b000d3}; !- Handle

OS:ZoneCapacitanceMultiplier:ResearchSpecial,
  {4020ce4f-5a7a-4849-8028-8305d7b751b1}, !- Handle
  ,                                       !- Temperature Capacity Multiplier
  ,                                       !- Humidity Capacity Multiplier
  ;                                       !- Carbon Dioxide Capacity Multiplier

OS:RunPeriod,
  {28df894d-6af9-4fb8-8f56-df1753344aa3}, !- Handle
  Run Period 1,                           !- Name
  1,                                      !- Begin Month
  1,                                      !- Begin Day of Month
  12,                                     !- End Month
  31,                                     !- End Day of Month
  ,                                       !- Use Weather File Holidays and Special Days
  ,                                       !- Use Weather File Daylight Saving Period
  ,                                       !- Apply Weekend Holiday Rule
  ,                                       !- Use Weather File Rain Indicators
  ,                                       !- Use Weather File Snow Indicators
  ;                                       !- Number of Times Runperiod to be Repeated

OS:Building,
  {bf305633-c5a1-4881-9edf-ca5e1a8e1274}, !- Handle
  Building 1,                             !- Name
  ,                                       !- Building Sector Type
  ,                                       !- North Axis {deg}
  ,                                       !- Nominal Floor to Floor Height {m}
  ,                                       !- Space Type Name
  ,                                       !- Default Construction Set Name
  {cb1457f0-3e0e-4b93-ae18-bb9cb6c65fef}, !- Default Schedule Set Name
  ,                                       !- Standards Number of Stories
  ,                                       !- Standards Number of Above Ground Stories
  QuickServiceRestaurant;                 !- Standards Building Type

OS:LifeCycleCost:Parameters,
  {231cf8a0-f0e7-4251-a99f-11f0d464e661}, !- Handle
  FEMP,                                   !- Analysis Type
  ,                                       !- Discounting Convention
  ,                                       !- Inflation Approach
  ,                                       !- Real Discount Rate
  ,                                       !- Nominal Discount Rate
  ,                                       !- Inflation
  ,                                       !- Base Date Month
  ,                                       !- Base Date Year
  ,                                       !- Service Date Month
  ,                                       !- Service Date Year
  ,                                       !- Length of Study Period in Years
  ,                                       !- Tax Rate
  ,                                       !- Depreciation Method
  Yes;                                    !- Use NIST Fuel Escalation Rates

OS:Facility,
  {3ba8e45b-b833-44eb-a723-ea6c3946dc96}; !- Handle

OS:SpaceType,
  {7f38b62c-d164-4631-acf5-21767e04a973}, !- Handle
  QuickServiceRestaurant|Dining|DOE Ref 1980-2004|ASHRAE 169-2006-5A, !- Name
  {33c9c40c-52c6-4aab-9266-e4e50f5ad927}, !- Default Construction Set Name
  {364da8dd-37ff-412f-91c3-a41bf6814683}, !- Default Schedule Set Name
  {56890c65-49f5-4dd7-9c3d-12eb099caa72}, !- Group Rendering Name
  {f2d67d9a-aac2-4aab-adf7-b84174516577}, !- Design Specification Outdoor Air Object Name
  QuickServiceRestaurant,                 !- Standards Building Type
  Dining;                                 !- Standards Space Type

OS:Rendering:Color,
  {56890c65-49f5-4dd7-9c3d-12eb099caa72}, !- Handle
  Rendering Color 1,                      !- Name
  31,                                     !- Rendering Red Value
  169,                                    !- Rendering Green Value
  34;                                     !- Rendering Blue Value

OS:SpaceType,
  {31de4c59-f4e2-4e70-8582-e1af2eafc26a}, !- Handle
  QuickServiceRestaurant|Kitchen|DOE Ref 1980-2004|ASHRAE 169-2006-5A, !- Name
  {33c9c40c-52c6-4aab-9266-e4e50f5ad927}, !- Default Construction Set Name
  {3f0354cc-982e-40e0-93d1-a39186e530e2}, !- Default Schedule Set Name
  {6ab6e77f-5a2f-41bc-b7a5-b64ab4bc6be9}, !- Group Rendering Name
  {59afabd1-8ff1-48fd-b5b3-99fd47f3d9c7}, !- Design Specification Outdoor Air Object Name
  QuickServiceRestaurant,                 !- Standards Building Type
  Kitchen;                                !- Standards Space Type

OS:Rendering:Color,
  {6ab6e77f-5a2f-41bc-b7a5-b64ab4bc6be9}, !- Handle
  Rendering Color 2,                      !- Name
  78,                                     !- Rendering Red Value
  222,                                    !- Rendering Green Value
  133;                                    !- Rendering Blue Value

OS:Schedule:Ruleset,
  {ce07e54f-c0e8-419c-b8a6-f52e84937aeb}, !- Handle
  0700|2300|QuickServiceRestaurant|default|hoo, !- Name
  {e84c896c-71aa-472d-8d0f-cd480b473cd9}, !- Schedule Type Limits Name
  {ab15c7cc-62c2-428f-8fd3-8e7371ee1e1d}, !- Default Day Schedule Name
  {7e9b53ad-7af0-46f3-bf18-0a697b3c1a67}, !- Summer Design Day Schedule Name
  {c81fcdda-f11a-457e-9163-96a20d59abe7}; !- Winter Design Day Schedule Name

OS:Schedule:Day,
  {ab15c7cc-62c2-428f-8fd3-8e7371ee1e1d}, !- Handle
  0700|2300|QuickServiceRestaurant|default|hoo Schedule Week Day, !- Name
  {e84c896c-71aa-472d-8d0f-cd480b473cd9}, !- Schedule Type Limits Name
  ,                                       !- Interpolate to Timestep
  7,                                      !- Hour 1
  0,                                      !- Minute 1
  0,                                      !- Value Until Time 1
  23,                                     !- Hour 2
  0,                                      !- Minute 2
  1,                                      !- Value Until Time 2
  24,                                     !- Hour 3
  0,                                      !- Minute 3
  0;                                      !- Value Until Time 3

OS:Schedule:Day,
  {1b9f74a3-6e3f-4063-82fb-37f82d44dc5d}, !- Handle
  Schedule Day 2,                         !- Name
  ,                                       !- Schedule Type Limits Name
  ,                                       !- Interpolate to Timestep
  24,                                     !- Hour 1
  0,                                      !- Minute 1
  0;                                      !- Value Until Time 1

OS:Schedule:Day,
  {c81fcdda-f11a-457e-9163-96a20d59abe7}, !- Handle
  0700|2300|QuickServiceRestaurant|default|hoo Winter Design Day, !- Name
  {e84c896c-71aa-472d-8d0f-cd480b473cd9}, !- Schedule Type Limits Name
  ,                                       !- Interpolate to Timestep
  24,                                     !- Hour 1
  0,                                      !- Minute 1
  0;                                      !- Value Until Time 1

OS:Schedule:Day,
  {5ec100f9-add5-4ae0-9d33-ed94e164d433}, !- Handle
  Schedule Day 3,                         !- Name
  ,                                       !- Schedule Type Limits Name
  ,                                       !- Interpolate to Timestep
  24,                                     !- Hour 1
  0,                                      !- Minute 1
  0;                                      !- Value Until Time 1

OS:Schedule:Day,
  {7e9b53ad-7af0-46f3-bf18-0a697b3c1a67}, !- Handle
  0700|2300|QuickServiceRestaurant|default|hoo Summer Design Day, !- Name
  {e84c896c-71aa-472d-8d0f-cd480b473cd9}, !- Schedule Type Limits Name
  ,                                       !- Interpolate to Timestep
  24,                                     !- Hour 1
  0,                                      !- Minute 1
  1;                                      !- Value Until Time 1

OS:DefaultScheduleSet,
  {cb1457f0-3e0e-4b93-ae18-bb9cb6c65fef}, !- Handle
  Building Hours of Operation,            !- Name
  {ce07e54f-c0e8-419c-b8a6-f52e84937aeb}, !- Hours of Operation Schedule Name
  ,                                       !- Number of People Schedule Name
  ,                                       !- People Activity Level Schedule Name
  ,                                       !- Lighting Schedule Name
  ,                                       !- Electric Equipment Schedule Name
  ,                                       !- Gas Equipment Schedule Name
  ,                                       !- Hot Water Equipment Schedule Name
  ,                                       !- Infiltration Schedule Name
  ,                                       !- Steam Equipment Schedule Name
  ;                                       !- Other Equipment Schedule Name

OS:ScheduleTypeLimits,
  {e84c896c-71aa-472d-8d0f-cd480b473cd9}, !- Handle
  OnOff,                                  !- Name
  0,                                      !- Lower Limit Value {BasedOnField A4}
  1,                                      !- Upper Limit Value {BasedOnField A4}
  Discrete,                               !- Numeric Type
  Availability;                           !- Unit Type

OS:Schedule:Ruleset,
  {1df3050e-71df-4d3b-a7e3-06385fd9ac31}, !- Handle
  0700|2300|QuickServiceRestaurant|default|clothing, !- Name
  {4d8292ca-5642-4102-830c-0db432ed5d80}, !- Schedule Type Limits Name
  {e498baf0-08d0-461d-ad4c-3154e777ca73}, !- Default Day Schedule Name
  {ce14a099-78ee-499c-88c2-faf10956bf39}, !- Summer Design Day Schedule Name
  {26affab6-615f-4852-b744-d54fb97b94be}; !- Winter Design Day Schedule Name

OS:ScheduleTypeLimits,
  {4d8292ca-5642-4102-830c-0db432ed5d80}, !- Handle
  Dimensionless Schedule Type Limits,     !- Name
  ,                                       !- Lower Limit Value {BasedOnField A4}
  ,                                       !- Upper Limit Value {BasedOnField A4}
  Continuous,                             !- Numeric Type
  Dimensionless;                          !- Unit Type

OS:Schedule:Day,
  {e498baf0-08d0-461d-ad4c-3154e777ca73}, !- Handle
  0700|2300|QuickServiceRestaurant|default|clothing |default, !- Name
  {4d8292ca-5642-4102-830c-0db432ed5d80}, !- Schedule Type Limits Name
  ,                                       !- Interpolate to Timestep
  24,                                     !- Hour 1
  0,                                      !- Minute 1
  1;                                      !- Value Until Time 1

OS:Schedule:Day,
  {ce14a099-78ee-499c-88c2-faf10956bf39}, !- Handle
  0700|2300|QuickServiceRestaurant|default|clothing Summer Design Day, !- Name
  {4d8292ca-5642-4102-830c-0db432ed5d80}, !- Schedule Type Limits Name
  ,                                       !- Interpolate to Timestep
  24,                                     !- Hour 1
  0,                                      !- Minute 1
  1;                                      !- Value Until Time 1

OS:Schedule:Day,
  {26affab6-615f-4852-b744-d54fb97b94be}, !- Handle
  0700|2300|QuickServiceRestaurant|default|clothing Winter Design Day, !- Name
  {4d8292ca-5642-4102-830c-0db432ed5d80}, !- Schedule Type Limits Name
  ,                                       !- Interpolate to Timestep
  24,                                     !- Hour 1
  0,                                      !- Minute 1
  1;                                      !- Value Until Time 1

OS:Schedule:Rule,
  {9371c834-f9d7-4eb8-8d96-bc92f281c02c}, !- Handle
  0700|2300|QuickServiceRestaurant|default|clothing |5/1-9/30|Mon/Tue/Wed/Thu/Fri/Sat/Sun Rule, !- Name
  {1df3050e-71df-4d3b-a7e3-06385fd9ac31}, !- Schedule Ruleset Name
  0,                                      !- Rule Order
  {2b040f39-d969-449f-9198-1a00986abb45}, !- Day Schedule Name
  Yes,                                    !- Apply Sunday
  Yes,                                    !- Apply Monday
  Yes,                                    !- Apply Tuesday
  Yes,                                    !- Apply Wednesday
  Yes,                                    !- Apply Thursday
  Yes,                                    !- Apply Friday
  Yes,                                    !- Apply Saturday
  ,                                       !- Apply Holiday
  DateRange,                              !- Date Specification Type
  5,                                      !- Start Month
  1,                                      !- Start Day
  9,                                      !- End Month
  30;                                     !- End Day

OS:Schedule:Day,
  {2b040f39-d969-449f-9198-1a00986abb45}, !- Handle
  0700|2300|QuickServiceRestaurant|default|clothing |5/1-9/30|Mon/Tue/Wed/Thu/Fri/Sat/Sun, !- Name
  {4d8292ca-5642-4102-830c-0db432ed5d80}, !- Schedule Type Limits Name
  ,                                       !- Interpolate to Timestep
  24,                                     !- Hour 1
  0,                                      !- Minute 1
  0.5;                                    !- Value Until Time 1

OS:Schedule:Rule,
  {233ef0c1-774d-47f7-9e92-324431074bae}, !- Handle
  0700|2300|QuickServiceRestaurant|default|clothing |10/1-12/31|Mon/Tue/Wed/Thu/Fri/Sat/Sun Rule, !- Name
  {1df3050e-71df-4d3b-a7e3-06385fd9ac31}, !- Schedule Ruleset Name
  1,                                      !- Rule Order
  {eeafad29-757a-4dcd-807c-31b9e005d514}, !- Day Schedule Name
  Yes,                                    !- Apply Sunday
  Yes,                                    !- Apply Monday
  Yes,                                    !- Apply Tuesday
  Yes,                                    !- Apply Wednesday
  Yes,                                    !- Apply Thursday
  Yes,                                    !- Apply Friday
  Yes,                                    !- Apply Saturday
  ,                                       !- Apply Holiday
  DateRange,                              !- Date Specification Type
  10,                                     !- Start Month
  1,                                      !- Start Day
  12,                                     !- End Month
  31;                                     !- End Day

OS:Schedule:Day,
  {eeafad29-757a-4dcd-807c-31b9e005d514}, !- Handle
  0700|2300|QuickServiceRestaurant|default|clothing |10/1-12/31|Mon/Tue/Wed/Thu/Fri/Sat/Sun, !- Name
  {4d8292ca-5642-4102-830c-0db432ed5d80}, !- Schedule Type Limits Name
  ,                                       !- Interpolate to Timestep
  24,                                     !- Hour 1
  0,                                      !- Minute 1
  1;                                      !- Value Until Time 1

OS:Schedule:Ruleset,
  {bec401da-2861-466e-b7bc-9f3991aca8c6}, !- Handle
  0700|2300|QuickServiceRestaurant|Kitchen|clg_setpoint, !- Name
  {bf808344-6d0a-4990-82ab-ff1dce89aa97}, !- Schedule Type Limits Name
  {2419ec7b-0f89-42d9-af96-ed6378c7cd18}, !- Default Day Schedule Name
  {f5d89a19-130b-4e4b-bb76-b89d2cd8468c}, !- Summer Design Day Schedule Name
  {354ead47-9be1-46da-bb0c-a28000c1011c}; !- Winter Design Day Schedule Name

OS:ScheduleTypeLimits,
  {bf808344-6d0a-4990-82ab-ff1dce89aa97}, !- Handle
  Thermostat Cooling Setpoint Schedule Type Limits, !- Name
  0,                                      !- Lower Limit Value {BasedOnField A4}
  100,                                    !- Upper Limit Value {BasedOnField A4}
  Continuous,                             !- Numeric Type
  Temperature;                            !- Unit Type

OS:Schedule:Day,
  {2419ec7b-0f89-42d9-af96-ed6378c7cd18}, !- Handle
  0700|2300|QuickServiceRestaurant|Kitchen|clg_setpoint |default, !- Name
  {bf808344-6d0a-4990-82ab-ff1dce89aa97}, !- Schedule Type Limits Name
  ,                                       !- Interpolate to Timestep
  1,                                      !- Hour 1
  0,                                      !- Minute 1
  26.0000000000001,                       !- Value Until Time 1
  5,                                      !- Hour 2
  0,                                      !- Minute 2
  30.0000000000001,                       !- Value Until Time 2
  24,                                     !- Hour 3
  0,                                      !- Minute 3
  26.0000000000001;                       !- Value Until Time 3

OS:Schedule:Day,
  {f5d89a19-130b-4e4b-bb76-b89d2cd8468c}, !- Handle
  0700|2300|QuickServiceRestaurant|Kitchen|clg_setpoint Summer Design Day, !- Name
  {bf808344-6d0a-4990-82ab-ff1dce89aa97}, !- Schedule Type Limits Name
  ,                                       !- Interpolate to Timestep
  24,                                     !- Hour 1
  0,                                      !- Minute 1
  30.0000000000001;                       !- Value Until Time 1

OS:Schedule:Day,
  {354ead47-9be1-46da-bb0c-a28000c1011c}, !- Handle
  0700|2300|QuickServiceRestaurant|Kitchen|clg_setpoint Winter Design Day, !- Name
  {bf808344-6d0a-4990-82ab-ff1dce89aa97}, !- Schedule Type Limits Name
  ,                                       !- Interpolate to Timestep
  1,                                      !- Hour 1
  0,                                      !- Minute 1
  26.0000000000001,                       !- Value Until Time 1
  5,                                      !- Hour 2
  0,                                      !- Minute 2
  30.0000000000001,                       !- Value Until Time 2
  24,                                     !- Hour 3
  0,                                      !- Minute 3
  26.0000000000001;                       !- Value Until Time 3

OS:Schedule:Ruleset,
  {a57e71fd-f61d-4f23-8c3b-a0fa8ee98607}, !- Handle
  0700|2300|QuickServiceRestaurant|default|work_eff, !- Name
  {bec13fb8-c7fe-4d85-bb6a-8918cd2d31e3}, !- Schedule Type Limits Name
  {5845151b-d5db-4f94-ae9c-fc7807f4cd60}, !- Default Day Schedule Name
  {4a710533-a58a-4e45-97ea-d3a49b2e787d}, !- Summer Design Day Schedule Name
  {1f506f77-e80f-4278-a20f-26a1b8adbaa4}; !- Winter Design Day Schedule Name

OS:ScheduleTypeLimits,
  {bec13fb8-c7fe-4d85-bb6a-8918cd2d31e3}, !- Handle
  Fraction Schedule Type Limits,          !- Name
  0,                                      !- Lower Limit Value {BasedOnField A4}
  1,                                      !- Upper Limit Value {BasedOnField A4}
  Continuous,                             !- Numeric Type
  Dimensionless;                          !- Unit Type

OS:Schedule:Day,
  {5845151b-d5db-4f94-ae9c-fc7807f4cd60}, !- Handle
  0700|2300|QuickServiceRestaurant|default|work_eff |default, !- Name
  {bec13fb8-c7fe-4d85-bb6a-8918cd2d31e3}, !- Schedule Type Limits Name
  ,                                       !- Interpolate to Timestep
  24,                                     !- Hour 1
  0,                                      !- Minute 1
  0;                                      !- Value Until Time 1

OS:Schedule:Day,
  {4a710533-a58a-4e45-97ea-d3a49b2e787d}, !- Handle
  0700|2300|QuickServiceRestaurant|default|work_eff Summer Design Day, !- Name
  {bec13fb8-c7fe-4d85-bb6a-8918cd2d31e3}, !- Schedule Type Limits Name
  ,                                       !- Interpolate to Timestep
  24,                                     !- Hour 1
  0,                                      !- Minute 1
  0;                                      !- Value Until Time 1

OS:Schedule:Day,
  {1f506f77-e80f-4278-a20f-26a1b8adbaa4}, !- Handle
  0700|2300|QuickServiceRestaurant|default|work_eff Winter Design Day, !- Name
  {bec13fb8-c7fe-4d85-bb6a-8918cd2d31e3}, !- Schedule Type Limits Name
  ,                                       !- Interpolate to Timestep
  24,                                     !- Hour 1
  0,                                      !- Minute 1
  0;                                      !- Value Until Time 1

OS:Schedule:Ruleset,
  {43fa2c1a-a050-4fce-9ac7-5118852e3726}, !- Handle
  0700|2300|QuickServiceRestaurant|default|swh, !- Name
  {973c0a3a-5258-4406-9e6a-0742c53ddb62}, !- Schedule Type Limits Name
  {8d987974-fb06-4bb3-9a8d-a3be5ad737c9}, !- Default Day Schedule Name
  {b0f8886f-5d50-4b55-bf1f-6a5465ae1aa9}, !- Summer Design Day Schedule Name
  {4b78daea-627e-4437-9a08-e9a8ed179376}; !- Winter Design Day Schedule Name

OS:ScheduleTypeLimits,
  {973c0a3a-5258-4406-9e6a-0742c53ddb62}, !- Handle
  Water Use Schedule Type Limits,         !- Name
  0,                                      !- Lower Limit Value {BasedOnField A4}
  1,                                      !- Upper Limit Value {BasedOnField A4}
  Continuous,                             !- Numeric Type
  Dimensionless;                          !- Unit Type

OS:Schedule:Day,
  {8d987974-fb06-4bb3-9a8d-a3be5ad737c9}, !- Handle
  0700|2300|QuickServiceRestaurant|default|swh |default, !- Name
  {973c0a3a-5258-4406-9e6a-0742c53ddb62}, !- Schedule Type Limits Name
  ,                                       !- Interpolate to Timestep
  6,                                      !- Hour 1
  0,                                      !- Minute 1
  0,                                      !- Value Until Time 1
  8,                                      !- Hour 2
  0,                                      !- Minute 2
  0.15,                                   !- Value Until Time 2
  9,                                      !- Hour 3
  0,                                      !- Minute 3
  0.33,                                   !- Value Until Time 3
  10,                                     !- Hour 4
  0,                                      !- Minute 4
  0.13,                                   !- Value Until Time 4
  11,                                     !- Hour 5
  0,                                      !- Minute 5
  0.1,                                    !- Value Until Time 5
  12,                                     !- Hour 6
  0,                                      !- Minute 6
  0.72,                                   !- Value Until Time 6
  13,                                     !- Hour 7
  0,                                      !- Minute 7
  0.31,                                   !- Value Until Time 7
  14,                                     !- Hour 8
  0,                                      !- Minute 8
  0.98,                                   !- Value Until Time 8
  15,                                     !- Hour 9
  0,                                      !- Minute 9
  0.92,                                   !- Value Until Time 9
  16,                                     !- Hour 10
  0,                                      !- Minute 10
  0.22,                                   !- Value Until Time 10
  17,                                     !- Hour 11
  0,                                      !- Minute 11
  0.31,                                   !- Value Until Time 11
  18,                                     !- Hour 12
  0,                                      !- Minute 12
  0.23,                                   !- Value Until Time 12
  19,                                     !- Hour 13
  0,                                      !- Minute 13
  0.16,                                   !- Value Until Time 13
  20,                                     !- Hour 14
  0,                                      !- Minute 14
  0.1,                                    !- Value Until Time 14
  21,                                     !- Hour 15
  0,                                      !- Minute 15
  0.4,                                    !- Value Until Time 15
  22,                                     !- Hour 16
  0,                                      !- Minute 16
  0.42,                                   !- Value Until Time 16
  23,                                     !- Hour 17
  0,                                      !- Minute 17
  0.43,                                   !- Value Until Time 17
  24,                                     !- Hour 18
  0,                                      !- Minute 18
  0.15;                                   !- Value Until Time 18

OS:Schedule:Day,
  {b0f8886f-5d50-4b55-bf1f-6a5465ae1aa9}, !- Handle
  0700|2300|QuickServiceRestaurant|default|swh Summer Design Day, !- Name
  {973c0a3a-5258-4406-9e6a-0742c53ddb62}, !- Schedule Type Limits Name
  ,                                       !- Interpolate to Timestep
  6,                                      !- Hour 1
  0,                                      !- Minute 1
  0,                                      !- Value Until Time 1
  8,                                      !- Hour 2
  0,                                      !- Minute 2
  0.15,                                   !- Value Until Time 2
  9,                                      !- Hour 3
  0,                                      !- Minute 3
  0.33,                                   !- Value Until Time 3
  10,                                     !- Hour 4
  0,                                      !- Minute 4
  0.13,                                   !- Value Until Time 4
  11,                                     !- Hour 5
  0,                                      !- Minute 5
  0.1,                                    !- Value Until Time 5
  12,                                     !- Hour 6
  0,                                      !- Minute 6
  0.72,                                   !- Value Until Time 6
  13,                                     !- Hour 7
  0,                                      !- Minute 7
  0.31,                                   !- Value Until Time 7
  14,                                     !- Hour 8
  0,                                      !- Minute 8
  0.98,                                   !- Value Until Time 8
  15,                                     !- Hour 9
  0,                                      !- Minute 9
  0.92,                                   !- Value Until Time 9
  16,                                     !- Hour 10