
OS:Version,
  {2b5271e9-8308-40f1-bff9-5e649baee4f9}, !- Handle
  1.5.5;                                  !- Version Identifier

OS:ClimateZones,
  {135edfab-17e7-40db-a436-27d385a8cd6d}, !- Handle
  ,                                       !- Active Institution
  ,                                       !- Active Year
  ASHRAE,                                 !- Climate Zone Institution Name 1
  ANSI/ASHRAE Standard 169,               !- Climate Zone Document Name 1
  2006,                                   !- Climate Zone Document Year 1
  ,                                       !- Climate Zone Value 1
  CEC,                                    !- Climate Zone Institution Name 2
  California Climate Zone Descriptions,   !- Climate Zone Document Name 2
  1995,                                   !- Climate Zone Document Year 2
  ;                                       !- Climate Zone Value 2

OS:YearDescription,
  {513d8dda-86cb-442a-b01c-1f7f0e0ac70e}; !- Handle

OS:RadianceParameters,
  {270a96f1-3c86-4b75-a667-cdf22790e2c8}, !- Handle
  1,                                      !- Accumulated Rays per Record
  0,                                      !- Direct Threshold
  1,                                      !- Direct Certainty
  1,                                      !- Direct Jitter
  1,                                      !- Direct Pretest
  6,                                      !- Ambient Bounces VMX
  2,                                      !- Ambient Bounces DMX
  4050,                                   !- Ambient Divisions VMX
  512,                                    !- Ambient Divisions DMX
  256,                                    !- Ambient Supersamples
  0.001,                                  !- Limit Weight VMX
  0.001,                                  !- Limit Weight DMX
  500,                                    !- Klems Sampling Density
  146;                                    !- Sky Discretization Resolution

OS:SimulationControl,
  {2c487a4c-bac9-4ac5-b669-1e49d9da7c2b}, !- Handle
  ,                                       !- Do Zone Sizing Calculation
  ,                                       !- Do System Sizing Calculation
  ,                                       !- Do Plant Sizing Calculation
  No,                                     !- Run Simulation for Sizing Periods
  ,                                       !- Run Simulation for Weather File Run Periods
  0.04,                                   !- Loads Convergence Tolerance Value
  ,                                       !- Temperature Convergence Tolerance Value {deltaC}
  ,                                       !- Solar Distribution
  ,                                       !- Maximum Number of Warmup Days
  2;                                      !- Minimum Number of Warmup Days

OS:Sizing:Parameters,
  {dde5af6f-7923-4600-a28a-7556673a0266}, !- Handle
  1.25,                                   !- Heating Sizing Factor
  1.15;                                   !- Cooling Sizing Factor

OS:ProgramControl,
  {05027a99-f2b3-4aeb-afc6-1425fbb4371d}; !- Handle

OS:Timestep,
  {4ebc9f1e-4707-402e-9844-67eb1ffbd522}, !- Handle
  2;                                      !- Number of Timesteps per Hour

OS:OutputControl:ReportingTolerances,
  {65797aa2-06a9-45fe-b69d-bc6e060399d3}; !- Handle

OS:ConvergenceLimits,
  {9fc11aba-8822-4f3d-970c-46391ba4040d}; !- Handle

OS:ShadowCalculation,
  {ca758bea-4416-4626-9bba-3d8795c79bd6}, !- Handle
  7,                                      !- Calculation Frequency
  15000;                                  !- Maximum Figures in Shadow Overlap Calculations

OS:SurfaceConvectionAlgorithm:Inside,
  {aaabfc36-718a-4ab0-b622-f186ebb45230}, !- Handle
  TARP;                                   !- Algorithm

OS:SurfaceConvectionAlgorithm:Outside,
  {9a0a9f6f-4bbd-4b12-a121-9492a1fcd7d6}, !- Handle
  DOE-2;                                  !- Algorithm

OS:HeatBalanceAlgorithm,
  {9d93e563-e1e0-46d7-9e39-d1c8aceb7212}, !- Handle
  ConductionTransferFunction,             !- Algorithm
  200;                                    !- Surface Temperature Upper Limit {F}

OS:ZoneAirHeatBalanceAlgorithm,
  {8520d93e-310f-4696-9bcd-36228bfdd743}, !- Handle
  AnalyticalSolution;                     !- Algorithm

OS:ZoneAirContaminantBalance,
  {eb5fc3ae-fb22-4160-8fcb-3e3b22b000d3}; !- Handle

OS:ZoneCapacitanceMultiplier:ResearchSpecial,
  {4020ce4f-5a7a-4849-8028-8305d7b751b1}, !- Handle
  ,                                       !- Temperature Capacity Multiplier
  ,                                       !- Humidity Capacity Multiplier
  ;                                       !- Carbon Dioxide Capacity Multiplier

OS:RunPeriod,
  {28df894d-6af9-4fb8-8f56-df1753344aa3}, !- Handle
  Run Period 1,                           !- Name
  1,                                      !- Begin Month
  1,                                      !- Begin Day of Month
  12,                                     !- End Month
  31,                                     !- End Day of Month
  ,                                       !- Use Weather File Holidays and Special Days
  ,                                       !- Use Weather File Daylight Saving Period
  ,                                       !- Apply Weekend Holiday Rule
  ,                                       !- Use Weather File Rain Indicators
  ,                                       !- Use Weather File Snow Indicators
  ;                                       !- Number of Times Runperiod to be Repeated

OS:Building,
  {bf305633-c5a1-4881-9edf-ca5e1a8e1274}, !- Handle
  Building 1,                             !- Name
  ,                                       !- Building Sector Type
  ,                                       !- North Axis {deg}
  ,                                       !- Nominal Floor to Floor Height {m}
  ,                                       !- Space Type Name
  ,                                       !- Default Construction Set Name
  {bcd0634d-2f38-4774-b45e-e3ad93462465}, !- Default Schedule Set Name
  ,                                       !- Standards Number of Stories
  ,                                       !- Standards Number of Above Ground Stories
  QuickServiceRestaurant;                 !- Standards Building Type

OS:LifeCycleCost:Parameters,
  {231cf8a0-f0e7-4251-a99f-11f0d464e661}, !- Handle
  FEMP,                                   !- Analysis Type
  ,                                       !- Discounting Convention
  ,                                       !- Inflation Approach
  ,                                       !- Real Discount Rate
  ,                                       !- Nominal Discount Rate
  ,                                       !- Inflation
  ,                                       !- Base Date Month
  ,                                       !- Base Date Year
  ,                                       !- Service Date Month
  ,                                       !- Service Date Year
  ,                                       !- Length of Study Period in Years
  ,                                       !- Tax Rate
  ,                                       !- Depreciation Method
  Yes;                                    !- Use NIST Fuel Escalation Rates

OS:Facility,
  {3ba8e45b-b833-44eb-a723-ea6c3946dc96}; !- Handle

OS:SpaceType,
  {7156dd04-606d-42e2-b24e-7fb018e10bac}, !- Handle
  QuickServiceRestaurant|Dining|DOE Ref 2004|ASHRAE 169-2006-5A, !- Name
  {ffaaca88-648a-4a3c-863b-bdb40b1b84c2}, !- Default Construction Set Name
  {827801a0-db47-4556-98d8-a8bfa0d38842}, !- Default Schedule Set Name
  {8bca7469-06cc-4c13-9a19-52497cd31c6c}, !- Group Rendering Name
  {3cc0f305-2535-4956-a290-d2c7f06b24fe}, !- Design Specification Outdoor Air Object Name
  QuickServiceRestaurant,                 !- Standards Building Type
  Dining;                                 !- Standards Space Type

OS:Rendering:Color,
  {8bca7469-06cc-4c13-9a19-52497cd31c6c}, !- Handle
  Rendering Color 1,                      !- Name
  31,                                     !- Rendering Red Value
  169,                                    !- Rendering Green Value
  34;                                     !- Rendering Blue Value

OS:SpaceType,
  {27738ec9-6cd6-4a99-926b-6dca847916ad}, !- Handle
  QuickServiceRestaurant|Kitchen|DOE Ref 2004|ASHRAE 169-2006-5A, !- Name
  {ffaaca88-648a-4a3c-863b-bdb40b1b84c2}, !- Default Construction Set Name
  {a48c317d-11aa-46e9-8e48-b54c3906ae0b}, !- Default Schedule Set Name
  {1ec23fa3-ffe5-422c-8edf-49a546f89185}, !- Group Rendering Name
  {9d827af6-5c60-440d-b089-99781e4911c0}, !- Design Specification Outdoor Air Object Name
  QuickServiceRestaurant,                 !- Standards Building Type
  Kitchen;                                !- Standards Space Type

OS:Rendering:Color,
  {1ec23fa3-ffe5-422c-8edf-49a546f89185}, !- Handle
  Rendering Color 2,                      !- Name
  78,                                     !- Rendering Red Value
  222,                                    !- Rendering Green Value
  133;                                    !- Rendering Blue Value

OS:Schedule:Ruleset,
  {1698214b-d6d9-4b9c-a0ea-fb3ae675d618}, !- Handle
  0700|2300|QuickServiceRestaurant|default|hoo, !- Name
  {76cd493d-26a6-4640-8258-04a4bb9cacdc}, !- Schedule Type Limits Name
  {10a4c581-d9a2-4dda-b0b6-75bf3f8f19e1}, !- Default Day Schedule Name
  {94d03368-879d-4f4b-9fe0-647ef3b95495}, !- Summer Design Day Schedule Name
  {9d67feaf-17f5-417f-b4cd-e7bff18cb6ff}; !- Winter Design Day Schedule Name

OS:Schedule:Day,
  {10a4c581-d9a2-4dda-b0b6-75bf3f8f19e1}, !- Handle
  0700|2300|QuickServiceRestaurant|default|hoo Schedule Week Day, !- Name
  {76cd493d-26a6-4640-8258-04a4bb9cacdc}, !- Schedule Type Limits Name
  ,                                       !- Interpolate to Timestep
  7,                                      !- Hour 1
  0,                                      !- Minute 1
  0,                                      !- Value Until Time 1
  23,                                     !- Hour 2
  0,                                      !- Minute 2
  1,                                      !- Value Until Time 2
  24,                                     !- Hour 3
  0,                                      !- Minute 3
  0;                                      !- Value Until Time 3

OS:Schedule:Day,
  {0d088f5c-409d-4aa7-b728-48375abb05c6}, !- Handle
  Schedule Day 2,                         !- Name
  ,                                       !- Schedule Type Limits Name
  ,                                       !- Interpolate to Timestep
  24,                                     !- Hour 1
  0,                                      !- Minute 1
  0;                                      !- Value Until Time 1

OS:Schedule:Day,
  {9d67feaf-17f5-417f-b4cd-e7bff18cb6ff}, !- Handle
  0700|2300|QuickServiceRestaurant|default|hoo Winter Design Day, !- Name
  {76cd493d-26a6-4640-8258-04a4bb9cacdc}, !- Schedule Type Limits Name
  ,                                       !- Interpolate to Timestep
  24,                                     !- Hour 1
  0,                                      !- Minute 1
  0;                                      !- Value Until Time 1

OS:Schedule:Day,
  {9d604456-203a-436c-a1f0-9d7dc1f5dade}, !- Handle
  Schedule Day 3,                         !- Name
  ,                                       !- Schedule Type Limits Name
  ,                                       !- Interpolate to Timestep
  24,                                     !- Hour 1
  0,                                      !- Minute 1
  0;                                      !- Value Until Time 1

OS:Schedule:Day,
  {94d03368-879d-4f4b-9fe0-647ef3b95495}, !- Handle
  0700|2300|QuickServiceRestaurant|default|hoo Summer Design Day, !- Name
  {76cd493d-26a6-4640-8258-04a4bb9cacdc}, !- Schedule Type Limits Name
  ,                                       !- Interpolate to Timestep
  24,                                     !- Hour 1
  0,                                      !- Minute 1
  1;                                      !- Value Until Time 1

OS:DefaultScheduleSet,
  {bcd0634d-2f38-4774-b45e-e3ad93462465}, !- Handle
  Building Hours of Operation,            !- Name
  {1698214b-d6d9-4b9c-a0ea-fb3ae675d618}, !- Hours of Operation Schedule Name
  ,                                       !- Number of People Schedule Name
  ,                                       !- People Activity Level Schedule Name
  ,                                       !- Lighting Schedule Name
  ,                                       !- Electric Equipment Schedule Name
  ,                                       !- Gas Equipment Schedule Name
  ,                                       !- Hot Water Equipment Schedule Name
  ,                                       !- Infiltration Schedule Name
  ,                                       !- Steam Equipment Schedule Name
  ;                                       !- Other Equipment Schedule Name

OS:ScheduleTypeLimits,
  {76cd493d-26a6-4640-8258-04a4bb9cacdc}, !- Handle
  OnOff,                                  !- Name
  0,                                      !- Lower Limit Value {BasedOnField A4}
  1,                                      !- Upper Limit Value {BasedOnField A4}
  Discrete,                               !- Numeric Type
  Availability;                           !- Unit Type

OS:Schedule:Ruleset,
  {ec3b21d9-0492-45ba-bbb9-a60d6721663b}, !- Handle
  0700|2300|QuickServiceRestaurant|default|clothing, !- Name
  {a16df912-f28f-4ec0-86a4-ac72a5facf7e}, !- Schedule Type Limits Name
  {196d3815-bb7f-4519-a1b1-990ca29a1eaf}, !- Default Day Schedule Name
  {581bf5fb-34df-45b4-9b5d-63486e5831ed}, !- Summer Design Day Schedule Name
  {03fe36aa-ed20-4d48-b63d-8234b312a7a9}; !- Winter Design Day Schedule Name

OS:ScheduleTypeLimits,
  {a16df912-f28f-4ec0-86a4-ac72a5facf7e}, !- Handle
  Dimensionless Schedule Type Limits,     !- Name
  ,                                       !- Lower Limit Value {BasedOnField A4}
  ,                                       !- Upper Limit Value {BasedOnField A4}
  Continuous,                             !- Numeric Type
  Dimensionless;                          !- Unit Type

OS:Schedule:Day,
  {196d3815-bb7f-4519-a1b1-990ca29a1eaf}, !- Handle
  0700|2300|QuickServiceRestaurant|default|clothing |default, !- Name
  {a16df912-f28f-4ec0-86a4-ac72a5facf7e}, !- Schedule Type Limits Name
  ,                                       !- Interpolate to Timestep
  24,                                     !- Hour 1
  0,                                      !- Minute 1
  1;                                      !- Value Until Time 1

OS:Schedule:Day,
  {581bf5fb-34df-45b4-9b5d-63486e5831ed}, !- Handle
  0700|2300|QuickServiceRestaurant|default|clothing Summer Design Day, !- Name
  {a16df912-f28f-4ec0-86a4-ac72a5facf7e}, !- Schedule Type Limits Name
  ,                                       !- Interpolate to Timestep
  24,                                     !- Hour 1
  0,                                      !- Minute 1
  1;                                      !- Value Until Time 1

OS:Schedule:Day,
  {03fe36aa-ed20-4d48-b63d-8234b312a7a9}, !- Handle
  0700|2300|QuickServiceRestaurant|default|clothing Winter Design Day, !- Name
  {a16df912-f28f-4ec0-86a4-ac72a5facf7e}, !- Schedule Type Limits Name
  ,                                       !- Interpolate to Timestep
  24,                                     !- Hour 1
  0,                                      !- Minute 1
  1;                                      !- Value Until Time 1

OS:Schedule:Rule,
  {1b4276ed-ad49-40b7-9c2f-698354850149}, !- Handle
  0700|2300|QuickServiceRestaurant|default|clothing |5/1-9/30|Mon/Tue/Wed/Thu/Fri/Sat/Sun Rule, !- Name
  {ec3b21d9-0492-45ba-bbb9-a60d6721663b}, !- Schedule Ruleset Name
  0,                                      !- Rule Order
  {03102d84-504c-4def-9374-5c37bcc3ebb2}, !- Day Schedule Name
  Yes,                                    !- Apply Sunday
  Yes,                                    !- Apply Monday
  Yes,                                    !- Apply Tuesday
  Yes,                                    !- Apply Wednesday
  Yes,                                    !- Apply Thursday
  Yes,                                    !- Apply Friday
  Yes,                                    !- Apply Saturday
  ,                                       !- Apply Holiday
  DateRange,                              !- Date Specification Type
  5,                                      !- Start Month
  1,                                      !- Start Day
  9,                                      !- End Month
  30;                                     !- End Day

OS:Schedule:Day,
  {03102d84-504c-4def-9374-5c37bcc3ebb2}, !- Handle
  0700|2300|QuickServiceRestaurant|default|clothing |5/1-9/30|Mon/Tue/Wed/Thu/Fri/Sat/Sun, !- Name
  {a16df912-f28f-4ec0-86a4-ac72a5facf7e}, !- Schedule Type Limits Name
  ,                                       !- Interpolate to Timestep
  24,                                     !- Hour 1
  0,                                      !- Minute 1
  0.5;                                    !- Value Until Time 1

OS:Schedule:Rule,
  {4658414b-b4b0-4d32-a844-076166e0f1a5}, !- Handle
  0700|2300|QuickServiceRestaurant|default|clothing |10/1-12/31|Mon/Tue/Wed/Thu/Fri/Sat/Sun Rule, !- Name
  {ec3b21d9-0492-45ba-bbb9-a60d6721663b}, !- Schedule Ruleset Name
  1,                                      !- Rule Order
  {bf84e1d1-09ea-49ef-b920-ca25ba85d403}, !- Day Schedule Name
  Yes,                                    !- Apply Sunday
  Yes,                                    !- Apply Monday
  Yes,                                    !- Apply Tuesday
  Yes,                                    !- Apply Wednesday
  Yes,                                    !- Apply Thursday
  Yes,                                    !- Apply Friday
  Yes,                                    !- Apply Saturday
  ,                                       !- Apply Holiday
  DateRange,                              !- Date Specification Type
  10,                                     !- Start Month
  1,                                      !- Start Day
  12,                                     !- End Month
  31;                                     !- End Day

OS:Schedule:Day,
  {bf84e1d1-09ea-49ef-b920-ca25ba85d403}, !- Handle
  0700|2300|QuickServiceRestaurant|default|clothing |10/1-12/31|Mon/Tue/Wed/Thu/Fri/Sat/Sun, !- Name
  {a16df912-f28f-4ec0-86a4-ac72a5facf7e}, !- Schedule Type Limits Name
  ,                                       !- Interpolate to Timestep
  24,                                     !- Hour 1
  0,                                      !- Minute 1
  1;                                      !- Value Until Time 1

OS:Schedule:Ruleset,
  {4cf98202-1be7-4d8c-a181-90546cab2445}, !- Handle
  0700|2300|QuickServiceRestaurant|Kitchen|clg_setpoint, !- Name
  {34389e77-e4c1-45cf-92c4-1552a32a7e26}, !- Schedule Type Limits Name
  {2e0c9383-c859-42ac-a430-69e955308a03}, !- Default Day Schedule Name
  {063163e7-e15e-4db3-af86-5802d1f9d3c3}, !- Summer Design Day Schedule Name
  {9a700f1c-9524-42fd-9c72-c4125892b007}; !- Winter Design Day Schedule Name

OS:ScheduleTypeLimits,
  {34389e77-e4c1-45cf-92c4-1552a32a7e26}, !- Handle
  Thermostat Cooling Setpoint Schedule Type Limits, !- Name
  0,                                      !- Lower Limit Value {BasedOnField A4}
  100,                                    !- Upper Limit Value {BasedOnField A4}
  Continuous,                             !- Numeric Type
  Temperature;                            !- Unit Type

OS:Schedule:Day,
  {2e0c9383-c859-42ac-a430-69e955308a03}, !- Handle
  0700|2300|QuickServiceRestaurant|Kitchen|clg_setpoint |default, !- Name
  {34389e77-e4c1-45cf-92c4-1552a32a7e26}, !- Schedule Type Limits Name
  ,                                       !- Interpolate to Timestep
  1,                                      !- Hour 1
  0,                                      !- Minute 1
  26.0000000000001,                       !- Value Until Time 1
  5,                                      !- Hour 2
  0,                                      !- Minute 2
  30.0000000000001,                       !- Value Until Time 2
  24,                                     !- Hour 3
  0,                                      !- Minute 3
  26.0000000000001;                       !- Value Until Time 3

OS:Schedule:Day,
  {063163e7-e15e-4db3-af86-5802d1f9d3c3}, !- Handle
  0700|2300|QuickServiceRestaurant|Kitchen|clg_setpoint Summer Design Day, !- Name
  {34389e77-e4c1-45cf-92c4-1552a32a7e26}, !- Schedule Type Limits Name
  ,                                       !- Interpolate to Timestep
  24,                                     !- Hour 1
  0,                                      !- Minute 1
  30.0000000000001;                       !- Value Until Time 1

OS:Schedule:Day,
  {9a700f1c-9524-42fd-9c72-c4125892b007}, !- Handle
  0700|2300|QuickServiceRestaurant|Kitchen|clg_setpoint Winter Design Day, !- Name
  {34389e77-e4c1-45cf-92c4-1552a32a7e26}, !- Schedule Type Limits Name
  ,                                       !- Interpolate to Timestep
  1,                                      !- Hour 1
  0,                                      !- Minute 1
  26.0000000000001,                       !- Value Until Time 1
  5,                                      !- Hour 2
  0,                                      !- Minute 2
  30.0000000000001,                       !- Value Until Time 2
  24,                                     !- Hour 3
  0,                                      !- Minute 3
  26.0000000000001;                       !- Value Until Time 3

OS:Schedule:Ruleset,
  {66af1391-412c-4add-881a-f470a3b9ed44}, !- Handle
  0700|2300|QuickServiceRestaurant|default|work_eff, !- Name
  {96ab6ff8-0417-4efe-a377-d7ebe91e920d}, !- Schedule Type Limits Name
  {495310b5-abc8-4ecb-97f7-dccdb16a7705}, !- Default Day Schedule Name
  {31be6a25-1dc7-4246-8711-738c6cd4c64e}, !- Summer Design Day Schedule Name
  {d3a2cdd6-9285-4aa0-95a4-a7d9f2937ff3}; !- Winter Design Day Schedule Name

OS:ScheduleTypeLimits,
  {96ab6ff8-0417-4efe-a377-d7ebe91e920d}, !- Handle
  Fraction Schedule Type Limits,          !- Name
  0,                                      !- Lower Limit Value {BasedOnField A4}
  1,                                      !- Upper Limit Value {BasedOnField A4}
  Continuous,                             !- Numeric Type
  Dimensionless;                          !- Unit Type

OS:Schedule:Day,
  {495310b5-abc8-4ecb-97f7-dccdb16a7705}, !- Handle
  0700|2300|QuickServiceRestaurant|default|work_eff |default, !- Name
  {96ab6ff8-0417-4efe-a377-d7ebe91e920d}, !- Schedule Type Limits Name
  ,                                       !- Interpolate to Timestep
  24,                                     !- Hour 1
  0,                                      !- Minute 1
  0;                                      !- Value Until Time 1

OS:Schedule:Day,
  {31be6a25-1dc7-4246-8711-738c6cd4c64e}, !- Handle
  0700|2300|QuickServiceRestaurant|default|work_eff Summer Design Day, !- Name
  {96ab6ff8-0417-4efe-a377-d7ebe91e920d}, !- Schedule Type Limits Name
  ,                                       !- Interpolate to Timestep
  24,                                     !- Hour 1
  0,                                      !- Minute 1
  0;                                      !- Value Until Time 1

OS:Schedule:Day,
  {d3a2cdd6-9285-4aa0-95a4-a7d9f2937ff3}, !- Handle
  0700|2300|QuickServiceRestaurant|default|work_eff Winter Design Day, !- Name
  {96ab6ff8-0417-4efe-a377-d7ebe91e920d}, !- Schedule Type Limits Name
  ,                                       !- Interpolate to Timestep
  24,                                     !- Hour 1
  0,                                      !- Minute 1
  0;                                      !- Value Until Time 1

OS:Schedule:Ruleset,
  {836e9077-6b7b-44a4-a1c9-e456bc119430}, !- Handle
  0700|2300|QuickServiceRestaurant|default|swh, !- Name
  {a83b588b-181a-41f7-81ac-80e5d152bc55}, !- Schedule Type Limits Name
  {7af6d10b-582a-40d3-8686-ffdddac61bab}, !- Default Day Schedule Name
  {aab4a7d4-bc1f-40f8-9e0e-312a8c28a0de}, !- Summer Design Day Schedule Name
  {caac3314-3a79-447a-9800-93e59e5e1a19}; !- Winter Design Day Schedule Name

OS:ScheduleTypeLimits,
  {a83b588b-181a-41f7-81ac-80e5d152bc55}, !- Handle
  Water Use Schedule Type Limits,         !- Name
  0,                                      !- Lower Limit Value {BasedOnField A4}
  1,                                      !- Upper Limit Value {BasedOnField A4}
  Continuous,                             !- Numeric Type
  Dimensionless;                          !- Unit Type

OS:Schedule:Day,
  {7af6d10b-582a-40d3-8686-ffdddac61bab}, !- Handle
  0700|2300|QuickServiceRestaurant|default|swh |default, !- Name
  {a83b588b-181a-41f7-81ac-80e5d152bc55}, !- Schedule Type Limits Name
  ,                                       !- Interpolate to Timestep
  6,                                      !- Hour 1
  0,                                      !- Minute 1
  0,                                      !- Value Until Time 1
  8,                                      !- Hour 2
  0,                                      !- Minute 2
  0.15,                                   !- Value Until Time 2
  9,                                      !- Hour 3
  0,                                      !- Minute 3
  0.33,                                   !- Value Until Time 3
  10,                                     !- Hour 4
  0,                                      !- Minute 4
  0.13,                                   !- Value Until Time 4
  11,                                     !- Hour 5
  0,                                      !- Minute 5
  0.1,                                    !- Value Until Time 5
  12,                                     !- Hour 6
  0,                                      !- Minute 6
  0.72,                                   !- Value Until Time 6
  13,                                     !- Hour 7
  0,                                      !- Minute 7
  0.31,                                   !- Value Until Time 7
  14,                                     !- Hour 8
  0,                                      !- Minute 8
  0.98,                                   !- Value Until Time 8
  15,                                     !- Hour 9
  0,                                      !- Minute 9
  0.92,                                   !- Value Until Time 9
  16,                                     !- Hour 10
  0,                                      !- Minute 10
  0.22,                                   !- Value Until Time 10
  17,                                     !- Hour 11
  0,                                      !- Minute 11
  0.31,                                   !- Value Until Time 11
  18,                                     !- Hour 12
  0,                                      !- Minute 12
  0.23,                                   !- Value Until Time 12
  19,                                     !- Hour 13
  0,                                      !- Minute 13
  0.16,                                   !- Value Until Time 13
  20,                                     !- Hour 14
  0,                                      !- Minute 14
  0.1,                                    !- Value Until Time 14
  21,                                     !- Hour 15
  0,                                      !- Minute 15
  0.4,                                    !- Value Until Time 15
  22,                                     !- Hour 16
  0,                                      !- Minute 16
  0.42,                                   !- Value Until Time 16
  23,                                     !- Hour 17
  0,                                      !- Minute 17
  0.43,                                   !- Value Until Time 17
  24,                                     !- Hour 18
  0,                                      !- Minute 18
  0.15;                                   !- Value Until Time 18

OS:Schedule:Day,
  {aab4a7d4-bc1f-40f8-9e0e-312a8c28a0de}, !- Handle
  0700|2300|QuickServiceRestaurant|default|swh Summer Design Day, !- Name
  {a83b588b-181a-41f7-81ac-80e5d152bc55}, !- Schedule Type Limits Name
  ,                                       !- Interpolate to Timestep
  6,                                      !- Hour 1
  0,                                      !- Minute 1
  0,                                      !- Value Until Time 1
  8,                                      !- Hour 2
  0,                                      !- Minute 2
  0.15,                                   !- Value Until Time 2
  9,                                      !- Hour 3
  0,                                      !- Minute 3
  0.33,                                   !- Value Until Time 3
  10,                                     !- Hour 4
  0,                                      !- Minute 4
  0.13,                                   !- Value Until Time 4
  11,                                     !- Hour 5
  0,                                      !- Minute 5
  0.1,                                    !- Value Until Time 5
  12,                                     !- Hour 6
  0,                                      !- Minute 6
  0.72,                                   !- Value Until Time 6
  13,                                     !- Hour 7
  0,                                      !- Minute 7
  0.31,                                   !- Value Until Time 7
  14,                                     !- Hour 8
  0,                                      !- Minute 8
  0.98,                                   !- Value Until Time 8
  15,                                     !- Hour 9
  0,                                      !- Minute 9
  0.92,                                   !- Value Until Time 9
  16,                                     !- Hour 10