
OS:Version,
  {51d82732-11ce-4403-8323-b13094c99320}, !- Handle
  1.5.5;                                  !- Version Identifier

OS:ClimateZones,
  {135edfab-17e7-40db-a436-27d385a8cd6d}, !- Handle
  ,                                       !- Active Institution
  ,                                       !- Active Year
  ASHRAE,                                 !- Climate Zone Institution Name 1
  ANSI/ASHRAE Standard 169,               !- Climate Zone Document Name 1
  2006,                                   !- Climate Zone Document Year 1
  ,                                       !- Climate Zone Value 1
  CEC,                                    !- Climate Zone Institution Name 2
  California Climate Zone Descriptions,   !- Climate Zone Document Name 2
  1995,                                   !- Climate Zone Document Year 2
  ;                                       !- Climate Zone Value 2

OS:YearDescription,
  {513d8dda-86cb-442a-b01c-1f7f0e0ac70e}; !- Handle

OS:RadianceParameters,
  {270a96f1-3c86-4b75-a667-cdf22790e2c8}, !- Handle
  1,                                      !- Accumulated Rays per Record
  0,                                      !- Direct Threshold
  1,                                      !- Direct Certainty
  1,                                      !- Direct Jitter
  1,                                      !- Direct Pretest
  6,                                      !- Ambient Bounces VMX
  2,                                      !- Ambient Bounces DMX
  4050,                                   !- Ambient Divisions VMX
  512,                                    !- Ambient Divisions DMX
  256,                                    !- Ambient Supersamples
  0.001,                                  !- Limit Weight VMX
  0.001,                                  !- Limit Weight DMX
  500,                                    !- Klems Sampling Density
  146;                                    !- Sky Discretization Resolution

OS:SimulationControl,
  {2c487a4c-bac9-4ac5-b669-1e49d9da7c2b}, !- Handle
  ,                                       !- Do Zone Sizing Calculation
  ,                                       !- Do System Sizing Calculation
  ,                                       !- Do Plant Sizing Calculation
  No,                                     !- Run Simulation for Sizing Periods
  ,                                       !- Run Simulation for Weather File Run Periods
  0.04,                                   !- Loads Convergence Tolerance Value
  ,                                       !- Temperature Convergence Tolerance Value {deltaC}
  ,                                       !- Solar Distribution
  ,                                       !- Maximum Number of Warmup Days
  2;                                      !- Minimum Number of Warmup Days

OS:Sizing:Parameters,
  {dde5af6f-7923-4600-a28a-7556673a0266}, !- Handle
  1.25,                                   !- Heating Sizing Factor
  1.15;                                   !- Cooling Sizing Factor

OS:ProgramControl,
  {05027a99-f2b3-4aeb-afc6-1425fbb4371d}; !- Handle

OS:Timestep,
  {4ebc9f1e-4707-402e-9844-67eb1ffbd522}, !- Handle
  2;                                      !- Number of Timesteps per Hour

OS:OutputControl:ReportingTolerances,
  {65797aa2-06a9-45fe-b69d-bc6e060399d3}; !- Handle

OS:ConvergenceLimits,
  {9fc11aba-8822-4f3d-970c-46391ba4040d}; !- Handle

OS:ShadowCalculation,
  {ca758bea-4416-4626-9bba-3d8795c79bd6}, !- Handle
  7,                                      !- Calculation Frequency
  15000;                                  !- Maximum Figures in Shadow Overlap Calculations

OS:SurfaceConvectionAlgorithm:Inside,
  {aaabfc36-718a-4ab0-b622-f186ebb45230}, !- Handle
  TARP;                                   !- Algorithm

OS:SurfaceConvectionAlgorithm:Outside,
  {9a0a9f6f-4bbd-4b12-a121-9492a1fcd7d6}, !- Handle
  DOE-2;                                  !- Algorithm

OS:HeatBalanceAlgorithm,
  {9d93e563-e1e0-46d7-9e39-d1c8aceb7212}, !- Handle
  ConductionTransferFunction,             !- Algorithm
  200;                                    !- Surface Temperature Upper Limit {F}

OS:ZoneAirHeatBalanceAlgorithm,
  {8520d93e-310f-4696-9bcd-36228bfdd743}, !- Handle
  AnalyticalSolution;                     !- Algorithm

OS:ZoneAirContaminantBalance,
  {eb5fc3ae-fb22-4160-8fcb-3e3b22b000d3}; !- Handle

OS:ZoneCapacitanceMultiplier:ResearchSpecial,
  {4020ce4f-5a7a-4849-8028-8305d7b751b1}, !- Handle
  ,                                       !- Temperature Capacity Multiplier
  ,                                       !- Humidity Capacity Multiplier
  ;                                       !- Carbon Dioxide Capacity Multiplier

OS:RunPeriod,
  {28df894d-6af9-4fb8-8f56-df1753344aa3}, !- Handle
  Run Period 1,                           !- Name
  1,                                      !- Begin Month
  1,                                      !- Begin Day of Month
  12,                                     !- End Month
  31,                                     !- End Day of Month
  ,                                       !- Use Weather File Holidays and Special Days
  ,                                       !- Use Weather File Daylight Saving Period
  ,                                       !- Apply Weekend Holiday Rule
  ,                                       !- Use Weather File Rain Indicators
  ,                                       !- Use Weather File Snow Indicators
  ;                                       !- Number of Times Runperiod to be Repeated

OS:Building,
  {bf305633-c5a1-4881-9edf-ca5e1a8e1274}, !- Handle
  Building 1,                             !- Name
  ,                                       !- Building Sector Type
  ,                                       !- North Axis {deg}
  ,                                       !- Nominal Floor to Floor Height {m}
  ,                                       !- Space Type Name
  ,                                       !- Default Construction Set Name
  {c6a8204a-b360-44a7-8ae5-aa5046c0c772}, !- Default Schedule Set Name
  ,                                       !- Standards Number of Stories
  ,                                       !- Standards Number of Above Ground Stories
  Retail;                                 !- Standards Building Type

OS:LifeCycleCost:Parameters,
  {231cf8a0-f0e7-4251-a99f-11f0d464e661}, !- Handle
  FEMP,                                   !- Analysis Type
  ,                                       !- Discounting Convention
  ,                                       !- Inflation Approach
  ,                                       !- Real Discount Rate
  ,                                       !- Nominal Discount Rate
  ,                                       !- Inflation
  ,                                       !- Base Date Month
  ,                                       !- Base Date Year
  ,                                       !- Service Date Month
  ,                                       !- Service Date Year
  ,                                       !- Length of Study Period in Years
  ,                                       !- Tax Rate
  ,                                       !- Depreciation Method
  Yes;                                    !- Use NIST Fuel Escalation Rates

OS:Facility,
  {3ba8e45b-b833-44eb-a723-ea6c3946dc96}; !- Handle

OS:SpaceType,
  {43328ea6-687c-472b-a4ea-55c4f02936a0}, !- Handle
  Retail|Retail|DOE Ref 2004|ASHRAE 169-2006-5A, !- Name
  {0bddb8cf-1027-42a5-b85f-028209a0695d}, !- Default Construction Set Name
  {c016270d-b70a-4373-9391-d7d57f07a5ab}, !- Default Schedule Set Name
  {60cf2d14-fe9c-4594-96ca-f6508596a94c}, !- Group Rendering Name
  {64bd63f5-7193-446c-b8e9-d844f260cd0f}, !- Design Specification Outdoor Air Object Name
  Retail,                                 !- Standards Building Type
  Retail;                                 !- Standards Space Type

OS:Rendering:Color,
  {60cf2d14-fe9c-4594-96ca-f6508596a94c}, !- Handle
  Rendering Color 1,                      !- Name
  171,                                    !- Rendering Red Value
  222,                                    !- Rendering Green Value
  78;                                     !- Rendering Blue Value

OS:SpaceType,
  {3210f175-7950-411f-a1a7-5ba1f2bc6c92}, !- Handle
  Retail|Back_Space|DOE Ref 2004|ASHRAE 169-2006-5A, !- Name
  {0bddb8cf-1027-42a5-b85f-028209a0695d}, !- Default Construction Set Name
  {88cfe624-2def-4bf1-ba65-f79e7f110099}, !- Default Schedule Set Name
  {d03f2f1d-5c1e-4af8-98eb-e525837da6d3}, !- Group Rendering Name
  {1a738eab-ce77-4700-a4fb-2851c73cf3b1}, !- Design Specification Outdoor Air Object Name
  Retail,                                 !- Standards Building Type
  Back_Space;                             !- Standards Space Type

OS:Rendering:Color,
  {d03f2f1d-5c1e-4af8-98eb-e525837da6d3}, !- Handle
  Rendering Color 2,                      !- Name
  120,                                    !- Rendering Red Value
  149,                                    !- Rendering Green Value
  230;                                    !- Rendering Blue Value

OS:SpaceType,
  {3756b714-5ea6-4e37-971b-9e7a287fc077}, !- Handle
  Retail|BlendFront|DOE Ref 2004|ASHRAE 169-2006-5A, !- Name
  {0bddb8cf-1027-42a5-b85f-028209a0695d}, !- Default Construction Set Name
  ,                                       !- Default Schedule Set Name
  {da33b994-b3c9-4e8a-862d-e67f0d55cd44}, !- Group Rendering Name
  {2609459b-c8c3-4cd1-b993-0fdc44947edf}, !- Design Specification Outdoor Air Object Name
  Retail,                                 !- Standards Building Type
  BlendFront;                             !- Standards Space Type

OS:Rendering:Color,
  {da33b994-b3c9-4e8a-862d-e67f0d55cd44}, !- Handle
  Rendering Color 3,                      !- Name
  171,                                    !- Rendering Red Value
  222,                                    !- Rendering Green Value
  78;                                     !- Rendering Blue Value

OS:Schedule:Ruleset,
  {c626c306-7a80-4d6f-90eb-5b4ea8562b27}, !- Handle
  0700|2100|Retail|default|hoo,           !- Name
  {887de78b-595c-4107-b8c8-f1cb83d6aaca}, !- Schedule Type Limits Name
  {91c78f99-a5a3-4c30-ab01-8487e522f8a3}, !- Default Day Schedule Name
  {5df78de9-3e28-4f34-af7c-bf348594a6ba}, !- Summer Design Day Schedule Name
  {464dd24e-ff48-489e-ab10-220cdc5bdf10}; !- Winter Design Day Schedule Name

OS:Schedule:Day,
  {91c78f99-a5a3-4c30-ab01-8487e522f8a3}, !- Handle
  0700|2100|Retail|default|hoo Schedule Week Day, !- Name
  {887de78b-595c-4107-b8c8-f1cb83d6aaca}, !- Schedule Type Limits Name
  ,                                       !- Interpolate to Timestep
  7,                                      !- Hour 1
  0,                                      !- Minute 1
  0,                                      !- Value Until Time 1
  21,                                     !- Hour 2
  0,                                      !- Minute 2
  1,                                      !- Value Until Time 2
  24,                                     !- Hour 3
  0,                                      !- Minute 3
  0;                                      !- Value Until Time 3

OS:Schedule:Day,
  {882bef94-513a-4e59-8dfb-94ab837feace}, !- Handle
  Schedule Day 2,                         !- Name
  ,                                       !- Schedule Type Limits Name
  ,                                       !- Interpolate to Timestep
  24,                                     !- Hour 1
  0,                                      !- Minute 1
  0;                                      !- Value Until Time 1

OS:Schedule:Day,
  {464dd24e-ff48-489e-ab10-220cdc5bdf10}, !- Handle
  0700|2100|Retail|default|hoo Winter Design Day, !- Name
  {887de78b-595c-4107-b8c8-f1cb83d6aaca}, !- Schedule Type Limits Name
  ,                                       !- Interpolate to Timestep
  24,                                     !- Hour 1
  0,                                      !- Minute 1
  0;                                      !- Value Until Time 1

OS:Schedule:Day,
  {76bdecb7-a6c6-44ba-8284-36b816f778ad}, !- Handle
  Schedule Day 3,                         !- Name
  ,                                       !- Schedule Type Limits Name
  ,                                       !- Interpolate to Timestep
  24,                                     !- Hour 1
  0,                                      !- Minute 1
  0;                                      !- Value Until Time 1

OS:Schedule:Day,
  {5df78de9-3e28-4f34-af7c-bf348594a6ba}, !- Handle
  0700|2100|Retail|default|hoo Summer Design Day, !- Name
  {887de78b-595c-4107-b8c8-f1cb83d6aaca}, !- Schedule Type Limits Name
  ,                                       !- Interpolate to Timestep
  24,                                     !- Hour 1
  0,                                      !- Minute 1
  1;                                      !- Value Until Time 1

OS:DefaultScheduleSet,
  {c6a8204a-b360-44a7-8ae5-aa5046c0c772}, !- Handle
  Building Hours of Operation,            !- Name
  {c626c306-7a80-4d6f-90eb-5b4ea8562b27}, !- Hours of Operation Schedule Name
  ,                                       !- Number of People Schedule Name
  ,                                       !- People Activity Level Schedule Name
  ,                                       !- Lighting Schedule Name
  ,                                       !- Electric Equipment Schedule Name
  ,                                       !- Gas Equipment Schedule Name
  ,                                       !- Hot Water Equipment Schedule Name
  ,                                       !- Infiltration Schedule Name
  ,                                       !- Steam Equipment Schedule Name
  ;                                       !- Other Equipment Schedule Name

OS:ScheduleTypeLimits,
  {887de78b-595c-4107-b8c8-f1cb83d6aaca}, !- Handle
  OnOff,                                  !- Name
  0,                                      !- Lower Limit Value {BasedOnField A4}
  1,                                      !- Upper Limit Value {BasedOnField A4}
  Discrete,                               !- Numeric Type
  Availability;                           !- Unit Type

OS:Schedule:Ruleset,
  {4e5c4ea8-a755-4c3d-b5a6-437275708115}, !- Handle
  0700|2100|Retail|default|lighting,      !- Name
  {bcaafa85-041c-4700-9e87-c8075493eef2}, !- Schedule Type Limits Name
  {c4446fae-e0d8-425d-99d5-b3307644abb4}, !- Default Day Schedule Name
  {490c561f-dd26-4d8c-b904-48fe1dd16447}, !- Summer Design Day Schedule Name
  {c83f65be-6f41-40aa-8a0b-fac97b7f8cce}; !- Winter Design Day Schedule Name

OS:ScheduleTypeLimits,
  {bcaafa85-041c-4700-9e87-c8075493eef2}, !- Handle
  Lights Schedule Type Limits,            !- Name
  0,                                      !- Lower Limit Value {BasedOnField A4}
  1,                                      !- Upper Limit Value {BasedOnField A4}
  Continuous,                             !- Numeric Type
  Dimensionless;                          !- Unit Type

OS:Schedule:Day,
  {c4446fae-e0d8-425d-99d5-b3307644abb4}, !- Handle
  0700|2100|Retail|default|lighting |default, !- Name
  {bcaafa85-041c-4700-9e87-c8075493eef2}, !- Schedule Type Limits Name
  ,                                       !- Interpolate to Timestep
  7,                                      !- Hour 1
  0,                                      !- Minute 1
  0.05,                                   !- Value Until Time 1
  8,                                      !- Hour 2
  0,                                      !- Minute 2
  0.2,                                    !- Value Until Time 2
  9,                                      !- Hour 3
  0,                                      !- Minute 3
  0.5,                                    !- Value Until Time 3
  18,                                     !- Hour 4
  0,                                      !- Minute 4
  0.9,                                    !- Value Until Time 4
  20,                                     !- Hour 5
  0,                                      !- Minute 5
  0.6,                                    !- Value Until Time 5
  21,                                     !- Hour 6
  0,                                      !- Minute 6
  0.5,                                    !- Value Until Time 6
  22,                                     !- Hour 7
  0,                                      !- Minute 7
  0.2,                                    !- Value Until Time 7
  24,                                     !- Hour 8
  0,                                      !- Minute 8
  0.05;                                   !- Value Until Time 8

OS:Schedule:Day,
  {490c561f-dd26-4d8c-b904-48fe1dd16447}, !- Handle
  0700|2100|Retail|default|lighting Summer Design Day, !- Name
  {bcaafa85-041c-4700-9e87-c8075493eef2}, !- Schedule Type Limits Name
  ,                                       !- Interpolate to Timestep
  7,                                      !- Hour 1
  0,                                      !- Minute 1
  0.05,                                   !- Value Until Time 1
  8,                                      !- Hour 2
  0,                                      !- Minute 2
  0.2,                                    !- Value Until Time 2
  21,                                     !- Hour 3
  0,                                      !- Minute 3
  1,                                      !- Value Until Time 3
  22,                                     !- Hour 4
  0,                                      !- Minute 4
  0.2,                                    !- Value Until Time 4
  24,                                     !- Hour 5
  0,                                      !- Minute 5
  0.05;                                   !- Value Until Time 5

OS:Schedule:Day,
  {c83f65be-6f41-40aa-8a0b-fac97b7f8cce}, !- Handle
  0700|2100|Retail|default|lighting Winter Design Day, !- Name
  {bcaafa85-041c-4700-9e87-c8075493eef2}, !- Schedule Type Limits Name
  ,                                       !- Interpolate to Timestep
  24,                                     !- Hour 1
  0,                                      !- Minute 1
  0.05;                                   !- Value Until Time 1

OS:Schedule:Rule,
  {545096ac-6895-4d0b-9b7c-a2e65f9fa785}, !- Handle
  0700|2100|Retail|default|lighting |1/1-12/31|Sat Rule, !- Name
  {4e5c4ea8-a755-4c3d-b5a6-437275708115}, !- Schedule Ruleset Name
  0,                                      !- Rule Order
  {8aa10406-44b1-45de-a7fe-c32569cf36b6}, !- Day Schedule Name
  ,                                       !- Apply Sunday
  ,                                       !- Apply Monday
  ,                                       !- Apply Tuesday
  ,                                       !- Apply Wednesday
  ,                                       !- Apply Thursday
  ,                                       !- Apply Friday
  Yes,                                    !- Apply Saturday
  ,                                       !- Apply Holiday
  DateRange,                              !- Date Specification Type
  1,                                      !- Start Month
  1,                                      !- Start Day
  12,                                     !- End Month
  31;                                     !- End Day

OS:Schedule:Day,
  {8aa10406-44b1-45de-a7fe-c32569cf36b6}, !- Handle
  0700|2100|Retail|default|lighting |1/1-12/31|Sat, !- Name
  {bcaafa85-041c-4700-9e87-c8075493eef2}, !- Schedule Type Limits Name
  ,                                       !- Interpolate to Timestep
  7,                                      !- Hour 1
  0,                                      !- Minute 1
  0.05,                                   !- Value Until Time 1
  8,                                      !- Hour 2
  0,                                      !- Minute 2
  0.1,                                    !- Value Until Time 2
  9,                                      !- Hour 3
  0,                                      !- Minute 3
  0.3,                                    !- Value Until Time 3
  10,                                     !- Hour 4
  0,                                      !- Minute 4
  0.6,                                    !- Value Until Time 4
  18,                                     !- Hour 5
  0,                                      !- Minute 5
  0.9,                                    !- Value Until Time 5
  19,                                     !- Hour 6
  0,                                      !- Minute 6
  0.5,                                    !- Value Until Time 6
  21,                                     !- Hour 7
  0,                                      !- Minute 7
  0.3,                                    !- Value Until Time 7
  22,                                     !- Hour 8
  0,                                      !- Minute 8
  0.1,                                    !- Value Until Time 8
  24,                                     !- Hour 9
  0,                                      !- Minute 9
  0.05;                                   !- Value Until Time 9

OS:Schedule:Rule,
  {6496e5b1-abf2-44e0-881f-9befc70b2a9d}, !- Handle
  0700|2100|Retail|default|lighting |1/1-12/31|Sun Rule, !- Name
  {4e5c4ea8-a755-4c3d-b5a6-437275708115}, !- Schedule Ruleset Name
  1,                                      !- Rule Order
  {d134893e-5c22-4238-938b-3a2f91b2ebd8}, !- Day Schedule Name
  Yes,                                    !- Apply Sunday
  ,                                       !- Apply Monday
  ,                                       !- Apply Tuesday
  ,                                       !- Apply Wednesday
  ,                                       !- Apply Thursday
  ,                                       !- Apply Friday
  ,                                       !- Apply Saturday
  ,                                       !- Apply Holiday
  DateRange,                              !- Date Specification Type
  1,                                      !- Start Month
  1,                                      !- Start Day
  12,                                     !- End Month
  31;                                     !- End Day

OS:Schedule:Day,
  {d134893e-5c22-4238-938b-3a2f91b2ebd8}, !- Handle
  0700|2100|Retail|default|lighting |1/1-12/31|Sun, !- Name
  {bcaafa85-041c-4700-9e87-c8075493eef2}, !- Schedule Type Limits Name
  ,                                       !- Interpolate to Timestep
  8,                                      !- Hour 1
  0,                                      !- Minute 1
  0.05,                                   !- Value Until Time 1
  10,                                     !- Hour 2
  0,                                      !- Minute 2
  0.1,                                    !- Value Until Time 2
  12,                                     !- Hour 3
  0,                                      !- Minute 3
  0.4,                                    !- Value Until Time 3
  17,                                     !- Hour 4
  0,                                      !- Minute 4
  0.6,                                    !- Value Until Time 4
  18,                                     !- Hour 5
  0,                                      !- Minute 5
  0.4,                                    !- Value Until Time 5
  19,                                     !- Hour 6
  0,                                      !- Minute 6
  0.2,                                    !- Value Until Time 6
  24,                                     !- Hour 7
  0,                                      !- Minute 7
  0.05;                                   !- Value Until Time 7

OS:Schedule:Ruleset,
  {84cec590-1140-44c9-8638-a5e03c17283b}, !- Handle
  0700|2100|Retail|default|elec_equip,    !- Name
  {82d43575-a629-4830-8096-196ae8865399}, !- Schedule Type Limits Name
  {c6d98323-2c5f-4f2f-81cb-e29776723305}, !- Default Day Schedule Name
  {f8d65990-f535-437b-871f-4290090dc02e}, !- Summer Design Day Schedule Name
  {12679b8d-3c45-493f-a792-3ebb3fa0d288}; !- Winter Design Day Schedule Name

OS:ScheduleTypeLimits,
  {82d43575-a629-4830-8096-196ae8865399}, !- Handle
  Equipment Schedule Type Limits,         !- Name
  0,                                      !- Lower Limit Value {BasedOnField A4}
  1,                                      !- Upper Limit Value {BasedOnField A4}
  Continuous,                             !- Numeric Type
  Dimensionless;                          !- Unit Type

OS:Schedule:Day,
  {c6d98323-2c5f-4f2f-81cb-e29776723305}, !- Handle
  0700|2100|Retail|default|elec_equip |default, !- Name
  {82d43575-a629-4830-8096-196ae8865399}, !- Schedule Type Limits Name
  ,                                       !- Interpolate to Timestep
  7,                                      !- Hour 1
  0,                                      !- Minute 1
  0.2,                                    !- Value Until Time 1
  8,                                      !- Hour 2
  0,                                      !- Minute 2
  0.4,                                    !- Value Until Time 2
  9,                                      !- Hour 3
  0,                                      !- Minute 3
  0.7,                                    !- Value Until Time 3
  18,                                     !- Hour 4
  0,                                      !- Minute 4
  0.9,                                    !- Value Until Time 4
  20,                                     !- Hour 5
  0,                                      !- Minute 5
  0.8,                                    !- Value Until Time 5
  21,                                     !- Hour 6
  0,                                      !- Minute 6
  0.7,                                    !- Value Until Time 6
  22,                                     !- Hour 7
  0,                                      !- Minute 7
  0.4,                                    !- Value Until Time 7
  24,                                     !- Hour 8
  0,                                      !- Minute 8
  0.2;                                    !- Value Until Time 8

OS:Schedule:Day,
  {f8d65990-f535-437b-871f-4290090dc02e}, !- Handle
  0700|2100|Retail|default|elec_equip Summer Design Day, !- Name
  {82d43575-a629-4830-8096-196ae8865399}, !- Schedule Type Limits Name
  ,                                       !- Interpolate to Timestep
  7,                                      !- Hour 1
  0,                                      !- Minute 1
  0.2,                                    !- Value Until Time 1
  22,                                     !- Hour 2
  0,                                      !- Minute 2
  1,                                      !- Value Until Time 2
  24,                                     !- Hour 3
  0,                                      !- Minute 3
  0.2;                                    !- Value Until Time 3

OS:Schedule:Day,
  {12679b8d-3c45-493f-a792-3ebb3fa0d288}, !- Handle
  0700|2100|Retail|default|elec_equip Winter Design Day, !- Name
  {82d43575-a629-4830-8096-196ae8865399}, !- Schedule Type Limits Name
  ,                                       !- Interpolate to Timestep
  24,                                     !- Hour 1
  0,                                      !- Minute 1
  0.2;                                    !- Value Until Time 1

OS:Schedule:Rule,
  {a468a852-2f0c-49c8-b4a5-d4b18a0cd816}, !- Handle
  0700|2100|Retail|default|elec_equip |1/1-12/31|Sat Rule, !- Name
  {84cec590-1140-44c9-8638-a5e03c17283b}, !- Schedule Ruleset Name
  0,                                      !- Rule Order
  {2e7da243-9bf5-4991-980c-e8577b7247f6}, !- Day Schedule Name
  ,                                       !- Apply Sunday
  ,                                       !- Apply Monday
  ,                                       !- Apply Tuesday
  ,                                       !- Apply Wednesday
  ,                                       !- Apply Thursday
  ,                                       !- Apply Friday
  Yes,                                    !- Apply Saturday
  ,                                       !- Apply Holiday
  DateRange,                              !- Date Specification Type
  1,                                      !- Start Month
  1,                                      !- Start Day
  12,                                     !- End Month
  31;                                     !- End Day

OS:Schedule:Day,
  {2e7da243-9bf5-4991-980c-e8577b7247f6}, !- Handle
  0700|2100|Retail|default|elec_equip |1/1-12/31|Sat, !- Name
  {82d43575-a629-4830-8096-196ae8865399}, !- Schedule Type Limits Name
  ,                                       !- Interpolate to Timestep
  7,                                      !- Hour 1
  0,                                      !- Minute 1
  0.15,                                   !- Value Until Time 1
  8,                                      !- Hour 2
  0,                                      !- Minute 2
  0.3,                                    !- Value Until Time 2
  9,                                      !- Hour 3
  0,                                      !- Minute 3
  0.5,                                    !- Value Until Time 3
  10,                                     !- Hour 4
  0,                                      !- Minute 4
  0.8,                                    !- Value Until Time 4
  18,                                     !- Hour 5
  0,                                      !- Minute 5
  0.9,                                    !- Value Until Time 5
  19,                                     !- Hour 6
  0,                                      !- Minute 6
  0.7,                                    !- Value Until Time 6
  21,                                     !- Hour 7
  0,                                      !- Minute 7
  0.5,                                    !- Value Until Time 7
  22,                                     !- Hour 8
  0,                                      !- Minute 8