
OS:Version,
  {f33d8a84-c028-42d6-b48b-9603bac4b4fa}, !- Handle
  1.5.5;                                  !- Version Identifier

OS:ClimateZones,
  {135edfab-17e7-40db-a436-27d385a8cd6d}, !- Handle
  ,                                       !- Active Institution
  ,                                       !- Active Year
  ASHRAE,                                 !- Climate Zone Institution Name 1
  ANSI/ASHRAE Standard 169,               !- Climate Zone Document Name 1
  2006,                                   !- Climate Zone Document Year 1
  ,                                       !- Climate Zone Value 1
  CEC,                                    !- Climate Zone Institution Name 2
  California Climate Zone Descriptions,   !- Climate Zone Document Name 2
  1995,                                   !- Climate Zone Document Year 2
  ;                                       !- Climate Zone Value 2

OS:YearDescription,
  {513d8dda-86cb-442a-b01c-1f7f0e0ac70e}; !- Handle

OS:RadianceParameters,
  {270a96f1-3c86-4b75-a667-cdf22790e2c8}, !- Handle
  1,                                      !- Accumulated Rays per Record
  0,                                      !- Direct Threshold
  1,                                      !- Direct Certainty
  1,                                      !- Direct Jitter
  1,                                      !- Direct Pretest
  6,                                      !- Ambient Bounces VMX
  2,                                      !- Ambient Bounces DMX
  4050,                                   !- Ambient Divisions VMX
  512,                                    !- Ambient Divisions DMX
  256,                                    !- Ambient Supersamples
  0.001,                                  !- Limit Weight VMX
  0.001,                                  !- Limit Weight DMX
  500,                                    !- Klems Sampling Density
  146;                                    !- Sky Discretization Resolution

OS:SimulationControl,
  {2c487a4c-bac9-4ac5-b669-1e49d9da7c2b}, !- Handle
  ,                                       !- Do Zone Sizing Calculation
  ,                                       !- Do System Sizing Calculation
  ,                                       !- Do Plant Sizing Calculation
  No,                                     !- Run Simulation for Sizing Periods
  ,                                       !- Run Simulation for Weather File Run Periods
  0.04,                                   !- Loads Convergence Tolerance Value
  ,                                       !- Temperature Convergence Tolerance Value {deltaC}
  ,                                       !- Solar Distribution
  ,                                       !- Maximum Number of Warmup Days
  2;                                      !- Minimum Number of Warmup Days

OS:Sizing:Parameters,
  {dde5af6f-7923-4600-a28a-7556673a0266}, !- Handle
  1.25,                                   !- Heating Sizing Factor
  1.15;                                   !- Cooling Sizing Factor

OS:ProgramControl,
  {05027a99-f2b3-4aeb-afc6-1425fbb4371d}; !- Handle

OS:Timestep,
  {4ebc9f1e-4707-402e-9844-67eb1ffbd522}, !- Handle
  2;                                      !- Number of Timesteps per Hour

OS:OutputControl:ReportingTolerances,
  {65797aa2-06a9-45fe-b69d-bc6e060399d3}; !- Handle

OS:ConvergenceLimits,
  {9fc11aba-8822-4f3d-970c-46391ba4040d}; !- Handle

OS:ShadowCalculation,
  {ca758bea-4416-4626-9bba-3d8795c79bd6}, !- Handle
  7,                                      !- Calculation Frequency
  15000;                                  !- Maximum Figures in Shadow Overlap Calculations

OS:SurfaceConvectionAlgorithm:Inside,
  {aaabfc36-718a-4ab0-b622-f186ebb45230}, !- Handle
  TARP;                                   !- Algorithm

OS:SurfaceConvectionAlgorithm:Outside,
  {9a0a9f6f-4bbd-4b12-a121-9492a1fcd7d6}, !- Handle
  DOE-2;                                  !- Algorithm

OS:HeatBalanceAlgorithm,
  {9d93e563-e1e0-46d7-9e39-d1c8aceb7212}, !- Handle
  ConductionTransferFunction,             !- Algorithm
  200;                                    !- Surface Temperature Upper Limit {F}

OS:ZoneAirHeatBalanceAlgorithm,
  {8520d93e-310f-4696-9bcd-36228bfdd743}, !- Handle
  AnalyticalSolution;                     !- Algorithm

OS:ZoneAirContaminantBalance,
  {eb5fc3ae-fb22-4160-8fcb-3e3b22b000d3}; !- Handle

OS:ZoneCapacitanceMultiplier:ResearchSpecial,
  {4020ce4f-5a7a-4849-8028-8305d7b751b1}, !- Handle
  ,                                       !- Temperature Capacity Multiplier
  ,                                       !- Humidity Capacity Multiplier
  ;                                       !- Carbon Dioxide Capacity Multiplier

OS:RunPeriod,
  {28df894d-6af9-4fb8-8f56-df1753344aa3}, !- Handle
  Run Period 1,                           !- Name
  1,                                      !- Begin Month
  1,                                      !- Begin Day of Month
  12,                                     !- End Month
  31,                                     !- End Day of Month
  ,                                       !- Use Weather File Holidays and Special Days
  ,                                       !- Use Weather File Daylight Saving Period
  ,                                       !- Apply Weekend Holiday Rule
  ,                                       !- Use Weather File Rain Indicators
  ,                                       !- Use Weather File Snow Indicators
  ;                                       !- Number of Times Runperiod to be Repeated

OS:Building,
  {bf305633-c5a1-4881-9edf-ca5e1a8e1274}, !- Handle
  Building 1,                             !- Name
  ,                                       !- Building Sector Type
  ,                                       !- North Axis {deg}
  ,                                       !- Nominal Floor to Floor Height {m}
  ,                                       !- Space Type Name
  ,                                       !- Default Construction Set Name
  {703971eb-1b2e-413c-9f51-69dbe064a727}, !- Default Schedule Set Name
  ,                                       !- Standards Number of Stories
  ,                                       !- Standards Number of Above Ground Stories
  Retail;                                 !- Standards Building Type

OS:LifeCycleCost:Parameters,
  {231cf8a0-f0e7-4251-a99f-11f0d464e661}, !- Handle
  FEMP,                                   !- Analysis Type
  ,                                       !- Discounting Convention
  ,                                       !- Inflation Approach
  ,                                       !- Real Discount Rate
  ,                                       !- Nominal Discount Rate
  ,                                       !- Inflation
  ,                                       !- Base Date Month
  ,                                       !- Base Date Year
  ,                                       !- Service Date Month
  ,                                       !- Service Date Year
  ,                                       !- Length of Study Period in Years
  ,                                       !- Tax Rate
  ,                                       !- Depreciation Method
  Yes;                                    !- Use NIST Fuel Escalation Rates

OS:Facility,
  {3ba8e45b-b833-44eb-a723-ea6c3946dc96}; !- Handle

OS:SpaceType,
  {19f25d49-360c-4243-850d-78eecbbbedd4}, !- Handle
  Retail|Retail|DOE Ref Pre-1980|ASHRAE 169-2006-5A, !- Name
  {6cecde8b-dc95-471f-b798-04f5a95ed0bd}, !- Default Construction Set Name
  {d9d7e26e-290f-4987-9da6-de665bab9c07}, !- Default Schedule Set Name
  {3cf3bdf8-8746-40fb-bb29-ead1f30d885a}, !- Group Rendering Name
  {e7583663-a40c-44a5-b9b8-fa5134ad29b9}, !- Design Specification Outdoor Air Object Name
  Retail,                                 !- Standards Building Type
  Retail;                                 !- Standards Space Type

OS:Rendering:Color,
  {3cf3bdf8-8746-40fb-bb29-ead1f30d885a}, !- Handle
  Rendering Color 1,                      !- Name
  171,                                    !- Rendering Red Value
  222,                                    !- Rendering Green Value
  78;                                     !- Rendering Blue Value

OS:SpaceType,
  {7ff9fd28-3ee1-408a-9ea9-f067cb33aaf6}, !- Handle
  Retail|Back_Space|DOE Ref Pre-1980|ASHRAE 169-2006-5A, !- Name
  {6cecde8b-dc95-471f-b798-04f5a95ed0bd}, !- Default Construction Set Name
  {163fe3ae-aebe-4761-ba57-533483fe1767}, !- Default Schedule Set Name
  {cd8a7d5a-7918-4284-9975-ef640020784f}, !- Group Rendering Name
  {0d410004-6fa4-4ef0-9573-164166b9d521}, !- Design Specification Outdoor Air Object Name
  Retail,                                 !- Standards Building Type
  Back_Space;                             !- Standards Space Type

OS:Rendering:Color,
  {cd8a7d5a-7918-4284-9975-ef640020784f}, !- Handle
  Rendering Color 2,                      !- Name
  120,                                    !- Rendering Red Value
  149,                                    !- Rendering Green Value
  230;                                    !- Rendering Blue Value

OS:SpaceType,
  {f72d5441-234e-4566-ad81-5beb47db6c8f}, !- Handle
  Retail|BlendFront|DOE Ref Pre-1980|ASHRAE 169-2006-5A, !- Name
  {6cecde8b-dc95-471f-b798-04f5a95ed0bd}, !- Default Construction Set Name
  ,                                       !- Default Schedule Set Name
  {0cafafb5-54f6-4b7e-a002-014aeeded902}, !- Group Rendering Name
  {ddc6cb1b-d89b-410c-a3a2-3f7d43783c64}, !- Design Specification Outdoor Air Object Name
  Retail,                                 !- Standards Building Type
  BlendFront;                             !- Standards Space Type

OS:Rendering:Color,
  {0cafafb5-54f6-4b7e-a002-014aeeded902}, !- Handle
  Rendering Color 3,                      !- Name
  171,                                    !- Rendering Red Value
  222,                                    !- Rendering Green Value
  78;                                     !- Rendering Blue Value

OS:Schedule:Ruleset,
  {56ba665a-5e95-4790-9059-2c91bf6cb06c}, !- Handle
  0700|2100|Retail|default|hoo,           !- Name
  {e533e0c1-1360-40bc-9564-7b30231cb259}, !- Schedule Type Limits Name
  {d3bfc317-1f6e-44a9-9c77-0150dea79940}, !- Default Day Schedule Name
  {7e543889-e38e-41e4-8419-4f2239c42d70}, !- Summer Design Day Schedule Name
  {91bf2ea7-3cb3-4374-9f23-a565a638027f}; !- Winter Design Day Schedule Name

OS:Schedule:Day,
  {d3bfc317-1f6e-44a9-9c77-0150dea79940}, !- Handle
  0700|2100|Retail|default|hoo Schedule Week Day, !- Name
  {e533e0c1-1360-40bc-9564-7b30231cb259}, !- Schedule Type Limits Name
  ,                                       !- Interpolate to Timestep
  7,                                      !- Hour 1
  0,                                      !- Minute 1
  0,                                      !- Value Until Time 1
  21,                                     !- Hour 2
  0,                                      !- Minute 2
  1,                                      !- Value Until Time 2
  24,                                     !- Hour 3
  0,                                      !- Minute 3
  0;                                      !- Value Until Time 3

OS:Schedule:Day,
  {689adfbe-4676-4329-bb90-0e6d11378270}, !- Handle
  Schedule Day 2,                         !- Name
  ,                                       !- Schedule Type Limits Name
  ,                                       !- Interpolate to Timestep
  24,                                     !- Hour 1
  0,                                      !- Minute 1
  0;                                      !- Value Until Time 1

OS:Schedule:Day,
  {91bf2ea7-3cb3-4374-9f23-a565a638027f}, !- Handle
  0700|2100|Retail|default|hoo Winter Design Day, !- Name
  {e533e0c1-1360-40bc-9564-7b30231cb259}, !- Schedule Type Limits Name
  ,                                       !- Interpolate to Timestep
  24,                                     !- Hour 1
  0,                                      !- Minute 1
  0;                                      !- Value Until Time 1

OS:Schedule:Day,
  {59f317d4-80aa-43ed-979d-55149959d1d7}, !- Handle
  Schedule Day 3,                         !- Name
  ,                                       !- Schedule Type Limits Name
  ,                                       !- Interpolate to Timestep
  24,                                     !- Hour 1
  0,                                      !- Minute 1
  0;                                      !- Value Until Time 1

OS:Schedule:Day,
  {7e543889-e38e-41e4-8419-4f2239c42d70}, !- Handle
  0700|2100|Retail|default|hoo Summer Design Day, !- Name
  {e533e0c1-1360-40bc-9564-7b30231cb259}, !- Schedule Type Limits Name
  ,                                       !- Interpolate to Timestep
  24,                                     !- Hour 1
  0,                                      !- Minute 1
  1;                                      !- Value Until Time 1

OS:DefaultScheduleSet,
  {703971eb-1b2e-413c-9f51-69dbe064a727}, !- Handle
  Building Hours of Operation,            !- Name
  {56ba665a-5e95-4790-9059-2c91bf6cb06c}, !- Hours of Operation Schedule Name
  ,                                       !- Number of People Schedule Name
  ,                                       !- People Activity Level Schedule Name
  ,                                       !- Lighting Schedule Name
  ,                                       !- Electric Equipment Schedule Name
  ,                                       !- Gas Equipment Schedule Name
  ,                                       !- Hot Water Equipment Schedule Name
  ,                                       !- Infiltration Schedule Name
  ,                                       !- Steam Equipment Schedule Name
  ;                                       !- Other Equipment Schedule Name

OS:ScheduleTypeLimits,
  {e533e0c1-1360-40bc-9564-7b30231cb259}, !- Handle
  OnOff,                                  !- Name
  0,                                      !- Lower Limit Value {BasedOnField A4}
  1,                                      !- Upper Limit Value {BasedOnField A4}
  Discrete,                               !- Numeric Type
  Availability;                           !- Unit Type

OS:Schedule:Ruleset,
  {3fbff904-a5be-4ccd-9f4e-2a8f8ded66dd}, !- Handle
  0700|2100|Retail|default|lighting,      !- Name
  {eeb83add-db28-433c-84cd-d256d56a65d3}, !- Schedule Type Limits Name
  {73d03d57-bc4b-4a9a-b360-278534247535}, !- Default Day Schedule Name
  {cf08cce7-b88b-4074-92d3-12a534a887e3}, !- Summer Design Day Schedule Name
  {8f8ddb5d-2713-407b-a837-34679d701d8f}; !- Winter Design Day Schedule Name

OS:ScheduleTypeLimits,
  {eeb83add-db28-433c-84cd-d256d56a65d3}, !- Handle
  Lights Schedule Type Limits,            !- Name
  0,                                      !- Lower Limit Value {BasedOnField A4}
  1,                                      !- Upper Limit Value {BasedOnField A4}
  Continuous,                             !- Numeric Type
  Dimensionless;                          !- Unit Type

OS:Schedule:Day,
  {73d03d57-bc4b-4a9a-b360-278534247535}, !- Handle
  0700|2100|Retail|default|lighting |default, !- Name
  {eeb83add-db28-433c-84cd-d256d56a65d3}, !- Schedule Type Limits Name
  ,                                       !- Interpolate to Timestep
  7,                                      !- Hour 1
  0,                                      !- Minute 1
  0.05,                                   !- Value Until Time 1
  8,                                      !- Hour 2
  0,                                      !- Minute 2
  0.2,                                    !- Value Until Time 2
  9,                                      !- Hour 3
  0,                                      !- Minute 3
  0.5,                                    !- Value Until Time 3
  18,                                     !- Hour 4
  0,                                      !- Minute 4
  0.9,                                    !- Value Until Time 4
  20,                                     !- Hour 5
  0,                                      !- Minute 5
  0.6,                                    !- Value Until Time 5
  21,                                     !- Hour 6
  0,                                      !- Minute 6
  0.5,                                    !- Value Until Time 6
  22,                                     !- Hour 7
  0,                                      !- Minute 7
  0.2,                                    !- Value Until Time 7
  24,                                     !- Hour 8
  0,                                      !- Minute 8
  0.05;                                   !- Value Until Time 8

OS:Schedule:Day,
  {cf08cce7-b88b-4074-92d3-12a534a887e3}, !- Handle
  0700|2100|Retail|default|lighting Summer Design Day, !- Name
  {eeb83add-db28-433c-84cd-d256d56a65d3}, !- Schedule Type Limits Name
  ,                                       !- Interpolate to Timestep
  7,                                      !- Hour 1
  0,                                      !- Minute 1
  0.05,                                   !- Value Until Time 1
  8,                                      !- Hour 2
  0,                                      !- Minute 2
  0.2,                                    !- Value Until Time 2
  21,                                     !- Hour 3
  0,                                      !- Minute 3
  1,                                      !- Value Until Time 3
  22,                                     !- Hour 4
  0,                                      !- Minute 4
  0.2,                                    !- Value Until Time 4
  24,                                     !- Hour 5
  0,                                      !- Minute 5
  0.05;                                   !- Value Until Time 5

OS:Schedule:Day,
  {8f8ddb5d-2713-407b-a837-34679d701d8f}, !- Handle
  0700|2100|Retail|default|lighting Winter Design Day, !- Name
  {eeb83add-db28-433c-84cd-d256d56a65d3}, !- Schedule Type Limits Name
  ,                                       !- Interpolate to Timestep
  24,                                     !- Hour 1
  0,                                      !- Minute 1
  0.05;                                   !- Value Until Time 1

OS:Schedule:Rule,
  {181169ea-20ea-45b9-9e8f-6db6d6a588bf}, !- Handle
  0700|2100|Retail|default|lighting |1/1-12/31|Sat Rule, !- Name
  {3fbff904-a5be-4ccd-9f4e-2a8f8ded66dd}, !- Schedule Ruleset Name
  0,                                      !- Rule Order
  {1ac54852-6e5d-46af-8287-7a1bba34f6f7}, !- Day Schedule Name
  ,                                       !- Apply Sunday
  ,                                       !- Apply Monday
  ,                                       !- Apply Tuesday
  ,                                       !- Apply Wednesday
  ,                                       !- Apply Thursday
  ,                                       !- Apply Friday
  Yes,                                    !- Apply Saturday
  ,                                       !- Apply Holiday
  DateRange,                              !- Date Specification Type
  1,                                      !- Start Month
  1,                                      !- Start Day
  12,                                     !- End Month
  31;                                     !- End Day

OS:Schedule:Day,
  {1ac54852-6e5d-46af-8287-7a1bba34f6f7}, !- Handle
  0700|2100|Retail|default|lighting |1/1-12/31|Sat, !- Name
  {eeb83add-db28-433c-84cd-d256d56a65d3}, !- Schedule Type Limits Name
  ,                                       !- Interpolate to Timestep
  7,                                      !- Hour 1
  0,                                      !- Minute 1
  0.05,                                   !- Value Until Time 1
  8,                                      !- Hour 2
  0,                                      !- Minute 2
  0.1,                                    !- Value Until Time 2
  9,                                      !- Hour 3
  0,                                      !- Minute 3
  0.3,                                    !- Value Until Time 3
  10,                                     !- Hour 4
  0,                                      !- Minute 4
  0.6,                                    !- Value Until Time 4
  18,                                     !- Hour 5
  0,                                      !- Minute 5
  0.9,                                    !- Value Until Time 5
  19,                                     !- Hour 6
  0,                                      !- Minute 6
  0.5,                                    !- Value Until Time 6
  21,                                     !- Hour 7
  0,                                      !- Minute 7
  0.3,                                    !- Value Until Time 7
  22,                                     !- Hour 8
  0,                                      !- Minute 8
  0.1,                                    !- Value Until Time 8
  24,                                     !- Hour 9
  0,                                      !- Minute 9
  0.05;                                   !- Value Until Time 9

OS:Schedule:Rule,
  {f6b52f72-9f68-4149-ad1e-386971dff17b}, !- Handle
  0700|2100|Retail|default|lighting |1/1-12/31|Sun Rule, !- Name
  {3fbff904-a5be-4ccd-9f4e-2a8f8ded66dd}, !- Schedule Ruleset Name
  1,                                      !- Rule Order
  {2962700d-c6b5-4888-b7e1-12ce07a5ed5f}, !- Day Schedule Name
  Yes,                                    !- Apply Sunday
  ,                                       !- Apply Monday
  ,                                       !- Apply Tuesday
  ,                                       !- Apply Wednesday
  ,                                       !- Apply Thursday
  ,                                       !- Apply Friday
  ,                                       !- Apply Saturday
  ,                                       !- Apply Holiday
  DateRange,                              !- Date Specification Type
  1,                                      !- Start Month
  1,                                      !- Start Day
  12,                                     !- End Month
  31;                                     !- End Day

OS:Schedule:Day,
  {2962700d-c6b5-4888-b7e1-12ce07a5ed5f}, !- Handle
  0700|2100|Retail|default|lighting |1/1-12/31|Sun, !- Name
  {eeb83add-db28-433c-84cd-d256d56a65d3}, !- Schedule Type Limits Name
  ,                                       !- Interpolate to Timestep
  8,                                      !- Hour 1
  0,                                      !- Minute 1
  0.05,                                   !- Value Until Time 1
  10,                                     !- Hour 2
  0,                                      !- Minute 2
  0.1,                                    !- Value Until Time 2
  12,                                     !- Hour 3
  0,                                      !- Minute 3
  0.4,                                    !- Value Until Time 3
  17,                                     !- Hour 4
  0,                                      !- Minute 4
  0.6,                                    !- Value Until Time 4
  18,                                     !- Hour 5
  0,                                      !- Minute 5
  0.4,                                    !- Value Until Time 5
  19,                                     !- Hour 6
  0,                                      !- Minute 6
  0.2,                                    !- Value Until Time 6
  24,                                     !- Hour 7
  0,                                      !- Minute 7
  0.05;                                   !- Value Until Time 7

OS:Schedule:Ruleset,
  {7a5014ba-d6c9-41ba-8b02-18ea96a4736a}, !- Handle
  0700|2100|Retail|default|elec_equip,    !- Name
  {9c308d8b-4005-4b7a-8c65-121731ec996c}, !- Schedule Type Limits Name
  {4609c251-62f9-4b08-9bad-44b5f9c105fa}, !- Default Day Schedule Name
  {c0a83611-93bb-4efb-bf93-0c2a69bbb74f}, !- Summer Design Day Schedule Name
  {79044331-64b2-40ac-a79d-cf42dbbfbe32}; !- Winter Design Day Schedule Name

OS:ScheduleTypeLimits,
  {9c308d8b-4005-4b7a-8c65-121731ec996c}, !- Handle
  Equipment Schedule Type Limits,         !- Name
  0,                                      !- Lower Limit Value {BasedOnField A4}
  1,                                      !- Upper Limit Value {BasedOnField A4}
  Continuous,                             !- Numeric Type
  Dimensionless;                          !- Unit Type

OS:Schedule:Day,
  {4609c251-62f9-4b08-9bad-44b5f9c105fa}, !- Handle
  0700|2100|Retail|default|elec_equip |default, !- Name
  {9c308d8b-4005-4b7a-8c65-121731ec996c}, !- Schedule Type Limits Name
  ,                                       !- Interpolate to Timestep
  7,                                      !- Hour 1
  0,                                      !- Minute 1
  0.2,                                    !- Value Until Time 1
  8,                                      !- Hour 2
  0,                                      !- Minute 2
  0.4,                                    !- Value Until Time 2
  9,                                      !- Hour 3
  0,                                      !- Minute 3
  0.7,                                    !- Value Until Time 3
  18,                                     !- Hour 4
  0,                                      !- Minute 4
  0.9,                                    !- Value Until Time 4
  20,                                     !- Hour 5
  0,                                      !- Minute 5
  0.8,                                    !- Value Until Time 5
  21,                                     !- Hour 6
  0,                                      !- Minute 6
  0.7,                                    !- Value Until Time 6
  22,                                     !- Hour 7
  0,                                      !- Minute 7
  0.4,                                    !- Value Until Time 7
  24,                                     !- Hour 8
  0,                                      !- Minute 8
  0.2;                                    !- Value Until Time 8

OS:Schedule:Day,
  {c0a83611-93bb-4efb-bf93-0c2a69bbb74f}, !- Handle
  0700|2100|Retail|default|elec_equip Summer Design Day, !- Name
  {9c308d8b-4005-4b7a-8c65-121731ec996c}, !- Schedule Type Limits Name
  ,                                       !- Interpolate to Timestep
  7,                                      !- Hour 1
  0,                                      !- Minute 1
  0.2,                                    !- Value Until Time 1
  22,                                     !- Hour 2
  0,                                      !- Minute 2
  1,                                      !- Value Until Time 2
  24,                                     !- Hour 3
  0,                                      !- Minute 3
  0.2;                                    !- Value Until Time 3

OS:Schedule:Day,
  {79044331-64b2-40ac-a79d-cf42dbbfbe32}, !- Handle
  0700|2100|Retail|default|elec_equip Winter Design Day, !- Name
  {9c308d8b-4005-4b7a-8c65-121731ec996c}, !- Schedule Type Limits Name
  ,                                       !- Interpolate to Timestep
  24,                                     !- Hour 1
  0,                                      !- Minute 1
  0.2;                                    !- Value Until Time 1

OS:Schedule:Rule,
  {53c0630b-f160-4b61-a25d-126d6fe548eb}, !- Handle
  0700|2100|Retail|default|elec_equip |1/1-12/31|Sat Rule, !- Name
  {7a5014ba-d6c9-41ba-8b02-18ea96a4736a}, !- Schedule Ruleset Name
  0,                                      !- Rule Order
  {5c884176-83bf-4760-ab2e-f3f64cd37e7c}, !- Day Schedule Name
  ,                                       !- Apply Sunday
  ,                                       !- Apply Monday
  ,                                       !- Apply Tuesday
  ,                                       !- Apply Wednesday
  ,                                       !- Apply Thursday
  ,                                       !- Apply Friday
  Yes,                                    !- Apply Saturday
  ,                                       !- Apply Holiday
  DateRange,                              !- Date Specification Type
  1,                                      !- Start Month
  1,                                      !- Start Day
  12,                                     !- End Month
  31;                                     !- End Day

OS:Schedule:Day,
  {5c884176-83bf-4760-ab2e-f3f64cd37e7c}, !- Handle
  0700|2100|Retail|default|elec_equip |1/1-12/31|Sat, !- Name
  {9c308d8b-4005-4b7a-8c65-121731ec996c}, !- Schedule Type Limits Name
  ,                                       !- Interpolate to Timestep
  7,                                      !- Hour 1
  0,                                      !- Minute 1
  0.15,                                   !- Value Until Time 1
  8,                                      !- Hour 2
  0,                                      !- Minute 2
  0.3,                                    !- Value Until Time 2
  9,                                      !- Hour 3
  0,                                      !- Minute 3
  0.5,                                    !- Value Until Time 3
  10,                                     !- Hour 4
  0,                                      !- Minute 4
  0.8,                                    !- Value Until Time 4
  18,                                     !- Hour 5
  0,                                      !- Minute 5
  0.9,                                    !- Value Until Time 5
  19,                                     !- Hour 6
  0,                                      !- Minute 6
  0.7,                                    !- Value Until Time 6
  21,                                     !- Hour 7
  0,                                      !- Minute 7
  0.5,                                    !- Value Until Time 7
  22,                                     !- Hour 8
  0,                                      !- Minute 8