
OS:Version,
  {538cfb68-96ce-497f-88f1-f2f0642cce29}, !- Handle
  1.5.5;                                  !- Version Identifier

OS:ClimateZones,
  {135edfab-17e7-40db-a436-27d385a8cd6d}, !- Handle
  ,                                       !- Active Institution
  ,                                       !- Active Year
  ASHRAE,                                 !- Climate Zone Institution Name 1
  ANSI/ASHRAE Standard 169,               !- Climate Zone Document Name 1
  2006,                                   !- Climate Zone Document Year 1
  ,                                       !- Climate Zone Value 1
  CEC,                                    !- Climate Zone Institution Name 2
  California Climate Zone Descriptions,   !- Climate Zone Document Name 2
  1995,                                   !- Climate Zone Document Year 2
  ;                                       !- Climate Zone Value 2

OS:YearDescription,
  {513d8dda-86cb-442a-b01c-1f7f0e0ac70e}; !- Handle

OS:RadianceParameters,
  {270a96f1-3c86-4b75-a667-cdf22790e2c8}, !- Handle
  1,                                      !- Accumulated Rays per Record
  0,                                      !- Direct Threshold
  1,                                      !- Direct Certainty
  1,                                      !- Direct Jitter
  1,                                      !- Direct Pretest
  6,                                      !- Ambient Bounces VMX
  2,                                      !- Ambient Bounces DMX
  4050,                                   !- Ambient Divisions VMX
  512,                                    !- Ambient Divisions DMX
  256,                                    !- Ambient Supersamples
  0.001,                                  !- Limit Weight VMX
  0.001,                                  !- Limit Weight DMX
  500,                                    !- Klems Sampling Density
  146;                                    !- Sky Discretization Resolution

OS:SimulationControl,
  {2c487a4c-bac9-4ac5-b669-1e49d9da7c2b}, !- Handle
  ,                                       !- Do Zone Sizing Calculation
  ,                                       !- Do System Sizing Calculation
  ,                                       !- Do Plant Sizing Calculation
  No,                                     !- Run Simulation for Sizing Periods
  ,                                       !- Run Simulation for Weather File Run Periods
  0.04,                                   !- Loads Convergence Tolerance Value
  ,                                       !- Temperature Convergence Tolerance Value {deltaC}
  ,                                       !- Solar Distribution
  ,                                       !- Maximum Number of Warmup Days
  2;                                      !- Minimum Number of Warmup Days

OS:Sizing:Parameters,
  {dde5af6f-7923-4600-a28a-7556673a0266}, !- Handle
  1.25,                                   !- Heating Sizing Factor
  1.15;                                   !- Cooling Sizing Factor

OS:ProgramControl,
  {05027a99-f2b3-4aeb-afc6-1425fbb4371d}; !- Handle

OS:Timestep,
  {4ebc9f1e-4707-402e-9844-67eb1ffbd522}, !- Handle
  2;                                      !- Number of Timesteps per Hour

OS:OutputControl:ReportingTolerances,
  {65797aa2-06a9-45fe-b69d-bc6e060399d3}; !- Handle

OS:ConvergenceLimits,
  {9fc11aba-8822-4f3d-970c-46391ba4040d}; !- Handle

OS:ShadowCalculation,
  {ca758bea-4416-4626-9bba-3d8795c79bd6}, !- Handle
  7,                                      !- Calculation Frequency
  15000;                                  !- Maximum Figures in Shadow Overlap Calculations

OS:SurfaceConvectionAlgorithm:Inside,
  {aaabfc36-718a-4ab0-b622-f186ebb45230}, !- Handle
  TARP;                                   !- Algorithm

OS:SurfaceConvectionAlgorithm:Outside,
  {9a0a9f6f-4bbd-4b12-a121-9492a1fcd7d6}, !- Handle
  DOE-2;                                  !- Algorithm

OS:HeatBalanceAlgorithm,
  {9d93e563-e1e0-46d7-9e39-d1c8aceb7212}, !- Handle
  ConductionTransferFunction,             !- Algorithm
  200;                                    !- Surface Temperature Upper Limit {F}

OS:ZoneAirHeatBalanceAlgorithm,
  {8520d93e-310f-4696-9bcd-36228bfdd743}, !- Handle
  AnalyticalSolution;                     !- Algorithm

OS:ZoneAirContaminantBalance,
  {eb5fc3ae-fb22-4160-8fcb-3e3b22b000d3}; !- Handle

OS:ZoneCapacitanceMultiplier:ResearchSpecial,
  {4020ce4f-5a7a-4849-8028-8305d7b751b1}, !- Handle
  ,                                       !- Temperature Capacity Multiplier
  ,                                       !- Humidity Capacity Multiplier
  ;                                       !- Carbon Dioxide Capacity Multiplier

OS:RunPeriod,
  {28df894d-6af9-4fb8-8f56-df1753344aa3}, !- Handle
  Run Period 1,                           !- Name
  1,                                      !- Begin Month
  1,                                      !- Begin Day of Month
  12,                                     !- End Month
  31,                                     !- End Day of Month
  ,                                       !- Use Weather File Holidays and Special Days
  ,                                       !- Use Weather File Daylight Saving Period
  ,                                       !- Apply Weekend Holiday Rule
  ,                                       !- Use Weather File Rain Indicators
  ,                                       !- Use Weather File Snow Indicators
  ;                                       !- Number of Times Runperiod to be Repeated

OS:Building,
  {bf305633-c5a1-4881-9edf-ca5e1a8e1274}, !- Handle
  Building 1,                             !- Name
  ,                                       !- Building Sector Type
  ,                                       !- North Axis {deg}
  ,                                       !- Nominal Floor to Floor Height {m}
  ,                                       !- Space Type Name
  ,                                       !- Default Construction Set Name
  {9d66e9eb-2f08-43ee-a342-4c7c09d26504}, !- Default Schedule Set Name
  ,                                       !- Standards Number of Stories
  ,                                       !- Standards Number of Above Ground Stories
  Retail;                                 !- Standards Building Type

OS:LifeCycleCost:Parameters,
  {231cf8a0-f0e7-4251-a99f-11f0d464e661}, !- Handle
  FEMP,                                   !- Analysis Type
  ,                                       !- Discounting Convention
  ,                                       !- Inflation Approach
  ,                                       !- Real Discount Rate
  ,                                       !- Nominal Discount Rate
  ,                                       !- Inflation
  ,                                       !- Base Date Month
  ,                                       !- Base Date Year
  ,                                       !- Service Date Month
  ,                                       !- Service Date Year
  ,                                       !- Length of Study Period in Years
  ,                                       !- Tax Rate
  ,                                       !- Depreciation Method
  Yes;                                    !- Use NIST Fuel Escalation Rates

OS:Facility,
  {3ba8e45b-b833-44eb-a723-ea6c3946dc96}; !- Handle

OS:SpaceType,
  {facf54a1-08f4-4883-bf9c-3fb2be3c49ed}, !- Handle
  Retail|Retail|DOE Ref 1980-2004|ASHRAE 169-2006-5A, !- Name
  {2f85cf5f-a634-42ac-801a-fb3b5b334cc9}, !- Default Construction Set Name
  {9621ca07-2c5e-4ebe-bc68-95d6ac32482f}, !- Default Schedule Set Name
  {bf01308b-ab27-4890-9a5b-d289c7ba6f72}, !- Group Rendering Name
  {20ce6f39-dd04-4ff4-ac95-d92374159881}, !- Design Specification Outdoor Air Object Name
  Retail,                                 !- Standards Building Type
  Retail;                                 !- Standards Space Type

OS:Rendering:Color,
  {bf01308b-ab27-4890-9a5b-d289c7ba6f72}, !- Handle
  Rendering Color 1,                      !- Name
  171,                                    !- Rendering Red Value
  222,                                    !- Rendering Green Value
  78;                                     !- Rendering Blue Value

OS:SpaceType,
  {77c762b8-7680-49f0-a363-54f05c63a996}, !- Handle
  Retail|Back_Space|DOE Ref 1980-2004|ASHRAE 169-2006-5A, !- Name
  {2f85cf5f-a634-42ac-801a-fb3b5b334cc9}, !- Default Construction Set Name
  {806ba56b-e1c2-4961-a454-150c4de5c28d}, !- Default Schedule Set Name
  {8e6605c7-584b-4d8a-9917-d448851c1073}, !- Group Rendering Name
  {bca2c777-87a6-4907-8fd3-128e0452577b}, !- Design Specification Outdoor Air Object Name
  Retail,                                 !- Standards Building Type
  Back_Space;                             !- Standards Space Type

OS:Rendering:Color,
  {8e6605c7-584b-4d8a-9917-d448851c1073}, !- Handle
  Rendering Color 2,                      !- Name
  120,                                    !- Rendering Red Value
  149,                                    !- Rendering Green Value
  230;                                    !- Rendering Blue Value

OS:SpaceType,
  {a1a19272-dfbb-40ca-ba46-78053b09ad63}, !- Handle
  Retail|BlendFront|DOE Ref 1980-2004|ASHRAE 169-2006-5A, !- Name
  {2f85cf5f-a634-42ac-801a-fb3b5b334cc9}, !- Default Construction Set Name
  ,                                       !- Default Schedule Set Name
  {8fc52357-a424-4e56-993a-080859282fc3}, !- Group Rendering Name
  {83b27a46-a295-4d03-80a5-712e37a1c04a}, !- Design Specification Outdoor Air Object Name
  Retail,                                 !- Standards Building Type
  BlendFront;                             !- Standards Space Type

OS:Rendering:Color,
  {8fc52357-a424-4e56-993a-080859282fc3}, !- Handle
  Rendering Color 3,                      !- Name
  171,                                    !- Rendering Red Value
  222,                                    !- Rendering Green Value
  78;                                     !- Rendering Blue Value

OS:Schedule:Ruleset,
  {9e513e11-48a4-49ab-ab08-f7938637d823}, !- Handle
  0700|2100|Retail|default|hoo,           !- Name
  {343ba3df-3c39-4b42-94e4-9d1bc4f4e359}, !- Schedule Type Limits Name
  {3853a486-eaf9-481b-a3bb-0cc7cc7019e3}, !- Default Day Schedule Name
  {cd097254-8ffc-4d3a-8621-5faa46b60351}, !- Summer Design Day Schedule Name
  {8f0b5d4d-70ce-4fdb-bcb2-531c34ecffc5}; !- Winter Design Day Schedule Name

OS:Schedule:Day,
  {3853a486-eaf9-481b-a3bb-0cc7cc7019e3}, !- Handle
  0700|2100|Retail|default|hoo Schedule Week Day, !- Name
  {343ba3df-3c39-4b42-94e4-9d1bc4f4e359}, !- Schedule Type Limits Name
  ,                                       !- Interpolate to Timestep
  7,                                      !- Hour 1
  0,                                      !- Minute 1
  0,                                      !- Value Until Time 1
  21,                                     !- Hour 2
  0,                                      !- Minute 2
  1,                                      !- Value Until Time 2
  24,                                     !- Hour 3
  0,                                      !- Minute 3
  0;                                      !- Value Until Time 3

OS:Schedule:Day,
  {9ca820d0-0764-49fa-aa8b-fae48a9b8522}, !- Handle
  Schedule Day 2,                         !- Name
  ,                                       !- Schedule Type Limits Name
  ,                                       !- Interpolate to Timestep
  24,                                     !- Hour 1
  0,                                      !- Minute 1
  0;                                      !- Value Until Time 1

OS:Schedule:Day,
  {8f0b5d4d-70ce-4fdb-bcb2-531c34ecffc5}, !- Handle
  0700|2100|Retail|default|hoo Winter Design Day, !- Name
  {343ba3df-3c39-4b42-94e4-9d1bc4f4e359}, !- Schedule Type Limits Name
  ,                                       !- Interpolate to Timestep
  24,                                     !- Hour 1
  0,                                      !- Minute 1
  0;                                      !- Value Until Time 1

OS:Schedule:Day,
  {968519ff-eb2c-4a4c-a0ee-c8f5023d7823}, !- Handle
  Schedule Day 3,                         !- Name
  ,                                       !- Schedule Type Limits Name
  ,                                       !- Interpolate to Timestep
  24,                                     !- Hour 1
  0,                                      !- Minute 1
  0;                                      !- Value Until Time 1

OS:Schedule:Day,
  {cd097254-8ffc-4d3a-8621-5faa46b60351}, !- Handle
  0700|2100|Retail|default|hoo Summer Design Day, !- Name
  {343ba3df-3c39-4b42-94e4-9d1bc4f4e359}, !- Schedule Type Limits Name
  ,                                       !- Interpolate to Timestep
  24,                                     !- Hour 1
  0,                                      !- Minute 1
  1;                                      !- Value Until Time 1

OS:DefaultScheduleSet,
  {9d66e9eb-2f08-43ee-a342-4c7c09d26504}, !- Handle
  Building Hours of Operation,            !- Name
  {9e513e11-48a4-49ab-ab08-f7938637d823}, !- Hours of Operation Schedule Name
  ,                                       !- Number of People Schedule Name
  ,                                       !- People Activity Level Schedule Name
  ,                                       !- Lighting Schedule Name
  ,                                       !- Electric Equipment Schedule Name
  ,                                       !- Gas Equipment Schedule Name
  ,                                       !- Hot Water Equipment Schedule Name
  ,                                       !- Infiltration Schedule Name
  ,                                       !- Steam Equipment Schedule Name
  ;                                       !- Other Equipment Schedule Name

OS:ScheduleTypeLimits,
  {343ba3df-3c39-4b42-94e4-9d1bc4f4e359}, !- Handle
  OnOff,                                  !- Name
  0,                                      !- Lower Limit Value {BasedOnField A4}
  1,                                      !- Upper Limit Value {BasedOnField A4}
  Discrete,                               !- Numeric Type
  Availability;                           !- Unit Type

OS:Schedule:Ruleset,
  {47441491-7953-41d0-9e2a-ea5a040d5b88}, !- Handle
  0700|2100|Retail|default|lighting,      !- Name
  {9186ddf7-9111-4658-8edc-71399b669b31}, !- Schedule Type Limits Name
  {94c111d3-84f4-498f-bab5-2bc7910f90ec}, !- Default Day Schedule Name
  {05b97842-da5d-4f69-bd29-6ec8640d9018}, !- Summer Design Day Schedule Name
  {e46e95ba-9ec8-4581-9b1a-f78c85ddca71}; !- Winter Design Day Schedule Name

OS:ScheduleTypeLimits,
  {9186ddf7-9111-4658-8edc-71399b669b31}, !- Handle
  Lights Schedule Type Limits,            !- Name
  0,                                      !- Lower Limit Value {BasedOnField A4}
  1,                                      !- Upper Limit Value {BasedOnField A4}
  Continuous,                             !- Numeric Type
  Dimensionless;                          !- Unit Type

OS:Schedule:Day,
  {94c111d3-84f4-498f-bab5-2bc7910f90ec}, !- Handle
  0700|2100|Retail|default|lighting |default, !- Name
  {9186ddf7-9111-4658-8edc-71399b669b31}, !- Schedule Type Limits Name
  ,                                       !- Interpolate to Timestep
  7,                                      !- Hour 1
  0,                                      !- Minute 1
  0.05,                                   !- Value Until Time 1
  8,                                      !- Hour 2
  0,                                      !- Minute 2
  0.2,                                    !- Value Until Time 2
  9,                                      !- Hour 3
  0,                                      !- Minute 3
  0.5,                                    !- Value Until Time 3
  18,                                     !- Hour 4
  0,                                      !- Minute 4
  0.9,                                    !- Value Until Time 4
  20,                                     !- Hour 5
  0,                                      !- Minute 5
  0.6,                                    !- Value Until Time 5
  21,                                     !- Hour 6
  0,                                      !- Minute 6
  0.5,                                    !- Value Until Time 6
  22,                                     !- Hour 7
  0,                                      !- Minute 7
  0.2,                                    !- Value Until Time 7
  24,                                     !- Hour 8
  0,                                      !- Minute 8
  0.05;                                   !- Value Until Time 8

OS:Schedule:Day,
  {05b97842-da5d-4f69-bd29-6ec8640d9018}, !- Handle
  0700|2100|Retail|default|lighting Summer Design Day, !- Name
  {9186ddf7-9111-4658-8edc-71399b669b31}, !- Schedule Type Limits Name
  ,                                       !- Interpolate to Timestep
  7,                                      !- Hour 1
  0,                                      !- Minute 1
  0.05,                                   !- Value Until Time 1
  8,                                      !- Hour 2
  0,                                      !- Minute 2
  0.2,                                    !- Value Until Time 2
  21,                                     !- Hour 3
  0,                                      !- Minute 3
  1,                                      !- Value Until Time 3
  22,                                     !- Hour 4
  0,                                      !- Minute 4
  0.2,                                    !- Value Until Time 4
  24,                                     !- Hour 5
  0,                                      !- Minute 5
  0.05;                                   !- Value Until Time 5

OS:Schedule:Day,
  {e46e95ba-9ec8-4581-9b1a-f78c85ddca71}, !- Handle
  0700|2100|Retail|default|lighting Winter Design Day, !- Name
  {9186ddf7-9111-4658-8edc-71399b669b31}, !- Schedule Type Limits Name
  ,                                       !- Interpolate to Timestep
  24,                                     !- Hour 1
  0,                                      !- Minute 1
  0.05;                                   !- Value Until Time 1

OS:Schedule:Rule,
  {32c29fff-6b06-44ad-90d8-e50744bd285a}, !- Handle
  0700|2100|Retail|default|lighting |1/1-12/31|Sat Rule, !- Name
  {47441491-7953-41d0-9e2a-ea5a040d5b88}, !- Schedule Ruleset Name
  0,                                      !- Rule Order
  {d2214f70-b568-4a3e-8e2a-d64b66af8a7e}, !- Day Schedule Name
  ,                                       !- Apply Sunday
  ,                                       !- Apply Monday
  ,                                       !- Apply Tuesday
  ,                                       !- Apply Wednesday
  ,                                       !- Apply Thursday
  ,                                       !- Apply Friday
  Yes,                                    !- Apply Saturday
  ,                                       !- Apply Holiday
  DateRange,                              !- Date Specification Type
  1,                                      !- Start Month
  1,                                      !- Start Day
  12,                                     !- End Month
  31;                                     !- End Day

OS:Schedule:Day,
  {d2214f70-b568-4a3e-8e2a-d64b66af8a7e}, !- Handle
  0700|2100|Retail|default|lighting |1/1-12/31|Sat, !- Name
  {9186ddf7-9111-4658-8edc-71399b669b31}, !- Schedule Type Limits Name
  ,                                       !- Interpolate to Timestep
  7,                                      !- Hour 1
  0,                                      !- Minute 1
  0.05,                                   !- Value Until Time 1
  8,                                      !- Hour 2
  0,                                      !- Minute 2
  0.1,                                    !- Value Until Time 2
  9,                                      !- Hour 3
  0,                                      !- Minute 3
  0.3,                                    !- Value Until Time 3
  10,                                     !- Hour 4
  0,                                      !- Minute 4
  0.6,                                    !- Value Until Time 4
  18,                                     !- Hour 5
  0,                                      !- Minute 5
  0.9,                                    !- Value Until Time 5
  19,                                     !- Hour 6
  0,                                      !- Minute 6
  0.5,                                    !- Value Until Time 6
  21,                                     !- Hour 7
  0,                                      !- Minute 7
  0.3,                                    !- Value Until Time 7
  22,                                     !- Hour 8
  0,                                      !- Minute 8
  0.1,                                    !- Value Until Time 8
  24,                                     !- Hour 9
  0,                                      !- Minute 9
  0.05;                                   !- Value Until Time 9

OS:Schedule:Rule,
  {00df93f4-d5a0-4200-82bf-fbfef915f6e5}, !- Handle
  0700|2100|Retail|default|lighting |1/1-12/31|Sun Rule, !- Name
  {47441491-7953-41d0-9e2a-ea5a040d5b88}, !- Schedule Ruleset Name
  1,                                      !- Rule Order
  {8d2c5dd4-9640-4bcc-94ef-2335678f21f5}, !- Day Schedule Name
  Yes,                                    !- Apply Sunday
  ,                                       !- Apply Monday
  ,                                       !- Apply Tuesday
  ,                                       !- Apply Wednesday
  ,                                       !- Apply Thursday
  ,                                       !- Apply Friday
  ,                                       !- Apply Saturday
  ,                                       !- Apply Holiday
  DateRange,                              !- Date Specification Type
  1,                                      !- Start Month
  1,                                      !- Start Day
  12,                                     !- End Month
  31;                                     !- End Day

OS:Schedule:Day,
  {8d2c5dd4-9640-4bcc-94ef-2335678f21f5}, !- Handle
  0700|2100|Retail|default|lighting |1/1-12/31|Sun, !- Name
  {9186ddf7-9111-4658-8edc-71399b669b31}, !- Schedule Type Limits Name
  ,                                       !- Interpolate to Timestep
  8,                                      !- Hour 1
  0,                                      !- Minute 1
  0.05,                                   !- Value Until Time 1
  10,                                     !- Hour 2
  0,                                      !- Minute 2
  0.1,                                    !- Value Until Time 2
  12,                                     !- Hour 3
  0,                                      !- Minute 3
  0.4,                                    !- Value Until Time 3
  17,                                     !- Hour 4
  0,                                      !- Minute 4
  0.6,                                    !- Value Until Time 4
  18,                                     !- Hour 5
  0,                                      !- Minute 5
  0.4,                                    !- Value Until Time 5
  19,                                     !- Hour 6
  0,                                      !- Minute 6
  0.2,                                    !- Value Until Time 6
  24,                                     !- Hour 7
  0,                                      !- Minute 7
  0.05;                                   !- Value Until Time 7

OS:Schedule:Ruleset,
  {e2992d68-817e-4f0d-86fd-76169c88b4a5}, !- Handle
  0700|2100|Retail|default|elec_equip,    !- Name
  {77700351-428c-4053-b8db-699d533c11c6}, !- Schedule Type Limits Name
  {6a1a1474-1ee4-479e-a568-84d135d972d8}, !- Default Day Schedule Name
  {a4db2b5a-d681-40d0-a7e7-196d931f8c69}, !- Summer Design Day Schedule Name
  {0bdcb024-888c-40ff-9129-2b098df41551}; !- Winter Design Day Schedule Name

OS:ScheduleTypeLimits,
  {77700351-428c-4053-b8db-699d533c11c6}, !- Handle
  Equipment Schedule Type Limits,         !- Name
  0,                                      !- Lower Limit Value {BasedOnField A4}
  1,                                      !- Upper Limit Value {BasedOnField A4}
  Continuous,                             !- Numeric Type
  Dimensionless;                          !- Unit Type

OS:Schedule:Day,
  {6a1a1474-1ee4-479e-a568-84d135d972d8}, !- Handle
  0700|2100|Retail|default|elec_equip |default, !- Name
  {77700351-428c-4053-b8db-699d533c11c6}, !- Schedule Type Limits Name
  ,                                       !- Interpolate to Timestep
  7,                                      !- Hour 1
  0,                                      !- Minute 1
  0.2,                                    !- Value Until Time 1
  8,                                      !- Hour 2
  0,                                      !- Minute 2
  0.4,                                    !- Value Until Time 2
  9,                                      !- Hour 3
  0,                                      !- Minute 3
  0.7,                                    !- Value Until Time 3
  18,                                     !- Hour 4
  0,                                      !- Minute 4
  0.9,                                    !- Value Until Time 4
  20,                                     !- Hour 5
  0,                                      !- Minute 5
  0.8,                                    !- Value Until Time 5
  21,                                     !- Hour 6
  0,                                      !- Minute 6
  0.7,                                    !- Value Until Time 6
  22,                                     !- Hour 7
  0,                                      !- Minute 7
  0.4,                                    !- Value Until Time 7
  24,                                     !- Hour 8
  0,                                      !- Minute 8
  0.2;                                    !- Value Until Time 8

OS:Schedule:Day,
  {a4db2b5a-d681-40d0-a7e7-196d931f8c69}, !- Handle
  0700|2100|Retail|default|elec_equip Summer Design Day, !- Name
  {77700351-428c-4053-b8db-699d533c11c6}, !- Schedule Type Limits Name
  ,                                       !- Interpolate to Timestep
  7,                                      !- Hour 1
  0,                                      !- Minute 1
  0.2,                                    !- Value Until Time 1
  22,                                     !- Hour 2
  0,                                      !- Minute 2
  1,                                      !- Value Until Time 2
  24,                                     !- Hour 3
  0,                                      !- Minute 3
  0.2;                                    !- Value Until Time 3

OS:Schedule:Day,
  {0bdcb024-888c-40ff-9129-2b098df41551}, !- Handle
  0700|2100|Retail|default|elec_equip Winter Design Day, !- Name
  {77700351-428c-4053-b8db-699d533c11c6}, !- Schedule Type Limits Name
  ,                                       !- Interpolate to Timestep
  24,                                     !- Hour 1
  0,                                      !- Minute 1
  0.2;                                    !- Value Until Time 1

OS:Schedule:Rule,
  {8ee825cb-4133-462e-82df-4eb1a3950869}, !- Handle
  0700|2100|Retail|default|elec_equip |1/1-12/31|Sat Rule, !- Name
  {e2992d68-817e-4f0d-86fd-76169c88b4a5}, !- Schedule Ruleset Name
  0,                                      !- Rule Order
  {7dffecfb-8c07-4592-8d17-5c116ecf687a}, !- Day Schedule Name
  ,                                       !- Apply Sunday
  ,                                       !- Apply Monday
  ,                                       !- Apply Tuesday
  ,                                       !- Apply Wednesday
  ,                                       !- Apply Thursday
  ,                                       !- Apply Friday
  Yes,                                    !- Apply Saturday
  ,                                       !- Apply Holiday
  DateRange,                              !- Date Specification Type
  1,                                      !- Start Month
  1,                                      !- Start Day
  12,                                     !- End Month
  31;                                     !- End Day

OS:Schedule:Day,
  {7dffecfb-8c07-4592-8d17-5c116ecf687a}, !- Handle
  0700|2100|Retail|default|elec_equip |1/1-12/31|Sat, !- Name
  {77700351-428c-4053-b8db-699d533c11c6}, !- Schedule Type Limits Name
  ,                                       !- Interpolate to Timestep
  7,                                      !- Hour 1
  0,                                      !- Minute 1
  0.15,                                   !- Value Until Time 1
  8,                                      !- Hour 2
  0,                                      !- Minute 2
  0.3,                                    !- Value Until Time 2
  9,                                      !- Hour 3
  0,                                      !- Minute 3
  0.5,                                    !- Value Until Time 3
  10,                                     !- Hour 4
  0,                                      !- Minute 4
  0.8,                                    !- Value Until Time 4
  18,                                     !- Hour 5
  0,                                      !- Minute 5
  0.9,                                    !- Value Until Time 5
  19,                                     !- Hour 6
  0,                                      !- Minute 6
  0.7,                                    !- Value Until Time 6
  21,                                     !- Hour 7
  0,                                      !- Minute 7
  0.5,                                    !- Value Until Time 7
  22,                                     !- Hour 8
  0,                                      !- Minute 8