
OS:Version,
  {7d11aae5-fb62-4c06-9b83-fecdbf2354d1}, !- Handle
  1.5.5;                                  !- Version Identifier

OS:ClimateZones,
  {135edfab-17e7-40db-a436-27d385a8cd6d}, !- Handle
  ,                                       !- Active Institution
  ,                                       !- Active Year
  ASHRAE,                                 !- Climate Zone Institution Name 1
  ANSI/ASHRAE Standard 169,               !- Climate Zone Document Name 1
  2006,                                   !- Climate Zone Document Year 1
  ,                                       !- Climate Zone Value 1
  CEC,                                    !- Climate Zone Institution Name 2
  California Climate Zone Descriptions,   !- Climate Zone Document Name 2
  1995,                                   !- Climate Zone Document Year 2
  ;                                       !- Climate Zone Value 2

OS:YearDescription,
  {513d8dda-86cb-442a-b01c-1f7f0e0ac70e}; !- Handle

OS:RadianceParameters,
  {270a96f1-3c86-4b75-a667-cdf22790e2c8}, !- Handle
  1,                                      !- Accumulated Rays per Record
  0,                                      !- Direct Threshold
  1,                                      !- Direct Certainty
  1,                                      !- Direct Jitter
  1,                                      !- Direct Pretest
  6,                                      !- Ambient Bounces VMX
  2,                                      !- Ambient Bounces DMX
  4050,                                   !- Ambient Divisions VMX
  512,                                    !- Ambient Divisions DMX
  256,                                    !- Ambient Supersamples
  0.001,                                  !- Limit Weight VMX
  0.001,                                  !- Limit Weight DMX
  500,                                    !- Klems Sampling Density
  146;                                    !- Sky Discretization Resolution

OS:SimulationControl,
  {2c487a4c-bac9-4ac5-b669-1e49d9da7c2b}, !- Handle
  ,                                       !- Do Zone Sizing Calculation
  ,                                       !- Do System Sizing Calculation
  ,                                       !- Do Plant Sizing Calculation
  No,                                     !- Run Simulation for Sizing Periods
  ,                                       !- Run Simulation for Weather File Run Periods
  0.04,                                   !- Loads Convergence Tolerance Value
  ,                                       !- Temperature Convergence Tolerance Value {deltaC}
  ,                                       !- Solar Distribution
  ,                                       !- Maximum Number of Warmup Days
  2;                                      !- Minimum Number of Warmup Days

OS:Sizing:Parameters,
  {dde5af6f-7923-4600-a28a-7556673a0266}, !- Handle
  1.25,                                   !- Heating Sizing Factor
  1.15;                                   !- Cooling Sizing Factor

OS:ProgramControl,
  {05027a99-f2b3-4aeb-afc6-1425fbb4371d}; !- Handle

OS:Timestep,
  {4ebc9f1e-4707-402e-9844-67eb1ffbd522}, !- Handle
  2;                                      !- Number of Timesteps per Hour

OS:OutputControl:ReportingTolerances,
  {65797aa2-06a9-45fe-b69d-bc6e060399d3}; !- Handle

OS:ConvergenceLimits,
  {9fc11aba-8822-4f3d-970c-46391ba4040d}; !- Handle

OS:ShadowCalculation,
  {ca758bea-4416-4626-9bba-3d8795c79bd6}, !- Handle
  7,                                      !- Calculation Frequency
  15000;                                  !- Maximum Figures in Shadow Overlap Calculations

OS:SurfaceConvectionAlgorithm:Inside,
  {aaabfc36-718a-4ab0-b622-f186ebb45230}, !- Handle
  TARP;                                   !- Algorithm

OS:SurfaceConvectionAlgorithm:Outside,
  {9a0a9f6f-4bbd-4b12-a121-9492a1fcd7d6}, !- Handle
  DOE-2;                                  !- Algorithm

OS:HeatBalanceAlgorithm,
  {9d93e563-e1e0-46d7-9e39-d1c8aceb7212}, !- Handle
  ConductionTransferFunction,             !- Algorithm
  200;                                    !- Surface Temperature Upper Limit {F}

OS:ZoneAirHeatBalanceAlgorithm,
  {8520d93e-310f-4696-9bcd-36228bfdd743}, !- Handle
  AnalyticalSolution;                     !- Algorithm

OS:ZoneAirContaminantBalance,
  {eb5fc3ae-fb22-4160-8fcb-3e3b22b000d3}; !- Handle

OS:ZoneCapacitanceMultiplier:ResearchSpecial,
  {4020ce4f-5a7a-4849-8028-8305d7b751b1}, !- Handle
  ,                                       !- Temperature Capacity Multiplier
  ,                                       !- Humidity Capacity Multiplier
  ;                                       !- Carbon Dioxide Capacity Multiplier

OS:RunPeriod,
  {28df894d-6af9-4fb8-8f56-df1753344aa3}, !- Handle
  Run Period 1,                           !- Name
  1,                                      !- Begin Month
  1,                                      !- Begin Day of Month
  12,                                     !- End Month
  31,                                     !- End Day of Month
  ,                                       !- Use Weather File Holidays and Special Days
  ,                                       !- Use Weather File Daylight Saving Period
  ,                                       !- Apply Weekend Holiday Rule
  ,                                       !- Use Weather File Rain Indicators
  ,                                       !- Use Weather File Snow Indicators
  ;                                       !- Number of Times Runperiod to be Repeated

OS:Building,
  {bf305633-c5a1-4881-9edf-ca5e1a8e1274}, !- Handle
  Building 1,                             !- Name
  ,                                       !- Building Sector Type
  ,                                       !- North Axis {deg}
  ,                                       !- Nominal Floor to Floor Height {m}
  ,                                       !- Space Type Name
  ,                                       !- Default Construction Set Name
  {ed95c075-d56d-40f7-92c5-b47219f24cf8}, !- Default Schedule Set Name
  ,                                       !- Standards Number of Stories
  ,                                       !- Standards Number of Above Ground Stories
  SecondarySchool;                        !- Standards Building Type

OS:LifeCycleCost:Parameters,
  {231cf8a0-f0e7-4251-a99f-11f0d464e661}, !- Handle
  FEMP,                                   !- Analysis Type
  ,                                       !- Discounting Convention
  ,                                       !- Inflation Approach
  ,                                       !- Real Discount Rate
  ,                                       !- Nominal Discount Rate
  ,                                       !- Inflation
  ,                                       !- Base Date Month
  ,                                       !- Base Date Year
  ,                                       !- Service Date Month
  ,                                       !- Service Date Year
  ,                                       !- Length of Study Period in Years
  ,                                       !- Tax Rate
  ,                                       !- Depreciation Method
  Yes;                                    !- Use NIST Fuel Escalation Rates

OS:Facility,
  {3ba8e45b-b833-44eb-a723-ea6c3946dc96}; !- Handle

OS:SpaceType,
  {7dcd284b-6c21-40f5-afb0-6171f01499de}, !- Handle
  SecondarySchool|BlendEdu|DOE Ref 2004|ASHRAE 169-2006-5A, !- Name
  {aeb33568-7f84-442a-9146-7b3fa80cc9fe}, !- Default Construction Set Name
  ,                                       !- Default Schedule Set Name
  {1521bf66-11a1-4558-b732-3aaabe66a078}, !- Group Rendering Name
  {229a5f30-03aa-4e45-b266-a178c87ac999}, !- Design Specification Outdoor Air Object Name
  SecondarySchool,                        !- Standards Building Type
  BlendEdu;                               !- Standards Space Type

OS:Rendering:Color,
  {1521bf66-11a1-4558-b732-3aaabe66a078}, !- Handle
  Rendering Color 1,                      !- Name
  120,                                    !- Rendering Red Value
  230,                                    !- Rendering Green Value
  199;                                    !- Rendering Blue Value

OS:SpaceType,
  {57c5fc99-6c43-4198-a7ec-d53c33973b5a}, !- Handle
  SecondarySchool|BlendOff|DOE Ref 2004|ASHRAE 169-2006-5A, !- Name
  {aeb33568-7f84-442a-9146-7b3fa80cc9fe}, !- Default Construction Set Name
  ,                                       !- Default Schedule Set Name
  {a54b798e-6021-414b-86f0-52b3b32e7aea}, !- Group Rendering Name
  {fbe5f2cc-1a32-43d0-8fe2-9f025c43cdc6}, !- Design Specification Outdoor Air Object Name
  SecondarySchool,                        !- Standards Building Type
  BlendOff;                               !- Standards Space Type

OS:Rendering:Color,
  {a54b798e-6021-414b-86f0-52b3b32e7aea}, !- Handle
  Rendering Color 2,                      !- Name
  120,                                    !- Rendering Red Value
  230,                                    !- Rendering Green Value
  199;                                    !- Rendering Blue Value

OS:SpaceType,
  {4c19e9c4-1b4f-42f7-8ffd-05c033f5fbfa}, !- Handle
  SecondarySchool|Gym|DOE Ref 2004|ASHRAE 169-2006-5A, !- Name
  {aeb33568-7f84-442a-9146-7b3fa80cc9fe}, !- Default Construction Set Name
  {1378960e-c777-4a4f-b390-740ffb003472}, !- Default Schedule Set Name
  {c212d8fc-a284-4214-bcf9-fd9427a407c2}, !- Group Rendering Name
  {06d69ac3-9923-4c80-928a-93df531a50f5}, !- Design Specification Outdoor Air Object Name
  SecondarySchool,                        !- Standards Building Type
  Gym;                                    !- Standards Space Type

OS:Rendering:Color,
  {c212d8fc-a284-4214-bcf9-fd9427a407c2}, !- Handle
  Rendering Color 3,                      !- Name
  154,                                    !- Rendering Red Value
  230,                                    !- Rendering Green Value
  120;                                    !- Rendering Blue Value

OS:SpaceType,
  {e3483dbb-ad42-4761-b971-55130f185803}, !- Handle
  SecondarySchool|Auditorium|DOE Ref 2004|ASHRAE 169-2006-5A, !- Name
  {aeb33568-7f84-442a-9146-7b3fa80cc9fe}, !- Default Construction Set Name
  {a42be5ba-eb91-4082-8ae5-8fbe1080a7ed}, !- Default Schedule Set Name
  {69fca74b-5e76-4eed-bcd3-1c94737da89a}, !- Group Rendering Name
  {f913f704-9138-4db4-8204-d8f7eb06173c}, !- Design Specification Outdoor Air Object Name
  SecondarySchool,                        !- Standards Building Type
  Auditorium;                             !- Standards Space Type

OS:Rendering:Color,
  {69fca74b-5e76-4eed-bcd3-1c94737da89a}, !- Handle
  Rendering Color 4,                      !- Name
  230,                                    !- Rendering Red Value
  196,                                    !- Rendering Green Value
  120;                                    !- Rendering Blue Value

OS:SpaceType,
  {d956b7aa-a107-4e1d-8b13-335c239ba189}, !- Handle
  SecondarySchool|Library|DOE Ref 2004|ASHRAE 169-2006-5A, !- Name
  {aeb33568-7f84-442a-9146-7b3fa80cc9fe}, !- Default Construction Set Name
  {fb522332-858b-4022-803d-b3cc99d9725f}, !- Default Schedule Set Name
  {b94ab43e-451f-4732-82d3-734b3697da6c}, !- Group Rendering Name
  {17944d45-e7db-423f-b05d-55c647a18358}, !- Design Specification Outdoor Air Object Name
  SecondarySchool,                        !- Standards Building Type
  Library;                                !- Standards Space Type

OS:Rendering:Color,
  {b94ab43e-451f-4732-82d3-734b3697da6c}, !- Handle
  Rendering Color 5,                      !- Name
  230,                                    !- Rendering Red Value
  196,                                    !- Rendering Green Value
  120;                                    !- Rendering Blue Value

OS:SpaceType,
  {210fd388-dc91-4194-9a76-ce86f2a76b9a}, !- Handle
  SecondarySchool|Cafeteria|DOE Ref 2004|ASHRAE 169-2006-5A, !- Name
  {aeb33568-7f84-442a-9146-7b3fa80cc9fe}, !- Default Construction Set Name
  {b4cd9aef-4b37-408a-aee0-be12231ea220}, !- Default Schedule Set Name
  {17e05bf6-044b-4d7a-a6c0-350cee81b41d}, !- Group Rendering Name
  {84095d4b-c90f-41db-91ea-92d0373548b6}, !- Design Specification Outdoor Air Object Name
  SecondarySchool,                        !- Standards Building Type
  Cafeteria;                              !- Standards Space Type

OS:Rendering:Color,
  {17e05bf6-044b-4d7a-a6c0-350cee81b41d}, !- Handle
  Rendering Color 6,                      !- Name
  31,                                     !- Rendering Red Value
  169,                                    !- Rendering Green Value
  34;                                     !- Rendering Blue Value

OS:SpaceType,
  {72679155-8946-4c4e-bba1-654000690197}, !- Handle
  SecondarySchool|Kitchen|DOE Ref 2004|ASHRAE 169-2006-5A, !- Name
  {aeb33568-7f84-442a-9146-7b3fa80cc9fe}, !- Default Construction Set Name
  {b1f4b231-da19-4b24-aff2-1374eef5aa51}, !- Default Schedule Set Name
  {5aba8dc4-31bc-44b7-91f9-97b6545ab6f6}, !- Group Rendering Name
  {3c9ab14c-a7c8-40d0-b93f-640db07fe84e}, !- Design Specification Outdoor Air Object Name
  SecondarySchool,                        !- Standards Building Type
  Kitchen;                                !- Standards Space Type

OS:Rendering:Color,
  {5aba8dc4-31bc-44b7-91f9-97b6545ab6f6}, !- Handle
  Rendering Color 7,                      !- Name
  78,                                     !- Rendering Red Value
  222,                                    !- Rendering Green Value
  133;                                    !- Rendering Blue Value

OS:Schedule:Ruleset,
  {5cb66144-88e9-4381-ac74-510a67ea2bcc}, !- Handle
  0800|1600|SecondarySchool|default|hoo,  !- Name
  {a311bf60-5449-4d5d-89a7-78378cf80e5d}, !- Schedule Type Limits Name
  {23a470f4-3f48-4b33-bde3-6eb1fdb5fcf1}, !- Default Day Schedule Name
  {223abe1f-46a7-41db-9644-4239d303af25}, !- Summer Design Day Schedule Name
  {c1c3b444-3dbb-435b-9d97-e4eab3a61aa7}; !- Winter Design Day Schedule Name

OS:Schedule:Day,
  {23a470f4-3f48-4b33-bde3-6eb1fdb5fcf1}, !- Handle
  0800|1600|SecondarySchool|default|hoo Schedule Week Day, !- Name
  {a311bf60-5449-4d5d-89a7-78378cf80e5d}, !- Schedule Type Limits Name
  ,                                       !- Interpolate to Timestep
  8,                                      !- Hour 1
  0,                                      !- Minute 1
  0,                                      !- Value Until Time 1
  16,                                     !- Hour 2
  0,                                      !- Minute 2
  1,                                      !- Value Until Time 2
  24,                                     !- Hour 3
  0,                                      !- Minute 3
  0;                                      !- Value Until Time 3

OS:Schedule:Day,
  {33cb20f4-ebe2-4700-b887-5a19fcdf6e23}, !- Handle
  Schedule Day 2,                         !- Name
  ,                                       !- Schedule Type Limits Name
  ,                                       !- Interpolate to Timestep
  24,                                     !- Hour 1
  0,                                      !- Minute 1
  0;                                      !- Value Until Time 1

OS:Schedule:Day,
  {c1c3b444-3dbb-435b-9d97-e4eab3a61aa7}, !- Handle
  0800|1600|SecondarySchool|default|hoo Winter Design Day, !- Name
  {a311bf60-5449-4d5d-89a7-78378cf80e5d}, !- Schedule Type Limits Name
  ,                                       !- Interpolate to Timestep
  24,                                     !- Hour 1
  0,                                      !- Minute 1
  0;                                      !- Value Until Time 1

OS:Schedule:Day,
  {98eb7ffa-a823-4ac7-a535-c589f3941974}, !- Handle
  Schedule Day 3,                         !- Name
  ,                                       !- Schedule Type Limits Name
  ,                                       !- Interpolate to Timestep
  24,                                     !- Hour 1
  0,                                      !- Minute 1
  0;                                      !- Value Until Time 1

OS:Schedule:Day,
  {223abe1f-46a7-41db-9644-4239d303af25}, !- Handle
  0800|1600|SecondarySchool|default|hoo Summer Design Day, !- Name
  {a311bf60-5449-4d5d-89a7-78378cf80e5d}, !- Schedule Type Limits Name
  ,                                       !- Interpolate to Timestep
  24,                                     !- Hour 1
  0,                                      !- Minute 1
  1;                                      !- Value Until Time 1

OS:DefaultScheduleSet,
  {ed95c075-d56d-40f7-92c5-b47219f24cf8}, !- Handle
  Building Hours of Operation,            !- Name
  {5cb66144-88e9-4381-ac74-510a67ea2bcc}, !- Hours of Operation Schedule Name
  ,                                       !- Number of People Schedule Name
  ,                                       !- People Activity Level Schedule Name
  ,                                       !- Lighting Schedule Name
  ,                                       !- Electric Equipment Schedule Name
  ,                                       !- Gas Equipment Schedule Name
  ,                                       !- Hot Water Equipment Schedule Name
  ,                                       !- Infiltration Schedule Name
  ,                                       !- Steam Equipment Schedule Name
  ;                                       !- Other Equipment Schedule Name

OS:ScheduleTypeLimits,
  {a311bf60-5449-4d5d-89a7-78378cf80e5d}, !- Handle
  OnOff,                                  !- Name
  0,                                      !- Lower Limit Value {BasedOnField A4}
  1,                                      !- Upper Limit Value {BasedOnField A4}
  Discrete,                               !- Numeric Type
  Availability;                           !- Unit Type

OS:Schedule:Ruleset,
  {bc72319b-aa53-4718-b40c-b213869ec572}, !- Handle
  0800|1600|SecondarySchool|default|occ,  !- Name
  {eac7777f-3557-493b-a861-474bb23c7349}, !- Schedule Type Limits Name
  {ff2c6254-213f-4b53-8f92-b0c338dc1210}, !- Default Day Schedule Name
  {6bd472ac-343a-4f95-a6d7-fde4a4fc5a15}, !- Summer Design Day Schedule Name
  {ea2cd3d8-3da4-49a1-877c-53aff68e770b}; !- Winter Design Day Schedule Name

OS:ScheduleTypeLimits,
  {eac7777f-3557-493b-a861-474bb23c7349}, !- Handle
  Occupancy Schedule Type Limits,         !- Name
  0,                                      !- Lower Limit Value {BasedOnField A4}
  1,                                      !- Upper Limit Value {BasedOnField A4}
  Continuous,                             !- Numeric Type
  Dimensionless;                          !- Unit Type

OS:Schedule:Day,
  {ff2c6254-213f-4b53-8f92-b0c338dc1210}, !- Handle
  0800|1600|SecondarySchool|default|occ |default, !- Name
  {eac7777f-3557-493b-a861-474bb23c7349}, !- Schedule Type Limits Name
  ,                                       !- Interpolate to Timestep
  8,                                      !- Hour 1
  0,                                      !- Minute 1
  0,                                      !- Value Until Time 1
  16,                                     !- Hour 2
  0,                                      !- Minute 2
  0.7,                                    !- Value Until Time 2
  21,                                     !- Hour 3
  0,                                      !- Minute 3
  0.15,                                   !- Value Until Time 3
  24,                                     !- Hour 4
  0,                                      !- Minute 4
  0;                                      !- Value Until Time 4

OS:Schedule:Day,
  {6bd472ac-343a-4f95-a6d7-fde4a4fc5a15}, !- Handle
  0800|1600|SecondarySchool|default|occ Summer Design Day, !- Name
  {eac7777f-3557-493b-a861-474bb23c7349}, !- Schedule Type Limits Name
  ,                                       !- Interpolate to Timestep
  8,                                      !- Hour 1
  0,                                      !- Minute 1
  0,                                      !- Value Until Time 1
  16,                                     !- Hour 2
  0,                                      !- Minute 2
  1,                                      !- Value Until Time 2
  21,                                     !- Hour 3
  0,                                      !- Minute 3
  0.15,                                   !- Value Until Time 3
  24,                                     !- Hour 4
  0,                                      !- Minute 4
  0;                                      !- Value Until Time 4

OS:Schedule:Day,
  {ea2cd3d8-3da4-49a1-877c-53aff68e770b}, !- Handle
  0800|1600|SecondarySchool|default|occ Winter Design Day, !- Name
  {eac7777f-3557-493b-a861-474bb23c7349}, !- Schedule Type Limits Name
  ,                                       !- Interpolate to Timestep
  24,                                     !- Hour 1
  0,                                      !- Minute 1
  0;                                      !- Value Until Time 1

OS:Schedule:Rule,
  {d1a86188-b797-414d-9f40-bda2df7b0af5}, !- Handle
  0800|1600|SecondarySchool|default|occ |1/1-6/30|Sat/Sun Rule, !- Name
  {bc72319b-aa53-4718-b40c-b213869ec572}, !- Schedule Ruleset Name
  0,                                      !- Rule Order
  {34f15e3c-7283-4b8e-b8fd-27f0d60dabbd}, !- Day Schedule Name
  Yes,                                    !- Apply Sunday
  ,                                       !- Apply Monday
  ,                                       !- Apply Tuesday
  ,                                       !- Apply Wednesday
  ,                                       !- Apply Thursday
  ,                                       !- Apply Friday
  Yes,                                    !- Apply Saturday
  ,                                       !- Apply Holiday
  DateRange,                              !- Date Specification Type
  1,                                      !- Start Month
  1,                                      !- Start Day
  6,                                      !- End Month
  30;                                     !- End Day

OS:Schedule:Day,
  {34f15e3c-7283-4b8e-b8fd-27f0d60dabbd}, !- Handle
  0800|1600|SecondarySchool|default|occ |1/1-6/30|Sat/Sun, !- Name
  {eac7777f-3557-493b-a861-474bb23c7349}, !- Schedule Type Limits Name
  ,                                       !- Interpolate to Timestep
  24,                                     !- Hour 1
  0,                                      !- Minute 1
  0;                                      !- Value Until Time 1

OS:Schedule:Rule,
  {c5e62c39-7f18-4b78-a3a0-2c5333390040}, !- Handle
  0800|1600|SecondarySchool|default|occ |7/1-9/1|Mon/Tue/Wed/Thu/Fri/Sat/Sun Rule, !- Name
  {bc72319b-aa53-4718-b40c-b213869ec572}, !- Schedule Ruleset Name
  1,                                      !- Rule Order
  {0b507a45-7aa9-44cc-93bb-7e7d831b5c79}, !- Day Schedule Name
  Yes,                                    !- Apply Sunday
  Yes,                                    !- Apply Monday
  Yes,                                    !- Apply Tuesday
  Yes,                                    !- Apply Wednesday
  Yes,                                    !- Apply Thursday
  Yes,                                    !- Apply Friday
  Yes,                                    !- Apply Saturday
  ,                                       !- Apply Holiday
  DateRange,                              !- Date Specification Type
  7,                                      !- Start Month
  1,                                      !- Start Day
  9,                                      !- End Month
  1;                                      !- End Day

OS:Schedule:Day,
  {0b507a45-7aa9-44cc-93bb-7e7d831b5c79}, !- Handle
  0800|1600|SecondarySchool|default|occ |7/1-9/1|Mon/Tue/Wed/Thu/Fri/Sat/Sun, !- Name
  {eac7777f-3557-493b-a861-474bb23c7349}, !- Schedule Type Limits Name
  ,                                       !- Interpolate to Timestep
  8,                                      !- Hour 1
  0,                                      !- Minute 1
  0,                                      !- Value Until Time 1
  21,                                     !- Hour 2
  0,                                      !- Minute 2
  0.15,                                   !- Value Until Time 2
  24,                                     !- Hour 3
  0,                                      !- Minute 3
  0;                                      !- Value Until Time 3

OS:Schedule:Rule,
  {84ab54d2-82d1-4bfa-8f8d-8fabf8573791}, !- Handle
  0800|1600|SecondarySchool|default|occ |7/1-9/1|Sat/Sun Rule, !- Name
  {bc72319b-aa53-4718-b40c-b213869ec572}, !- Schedule Ruleset Name
  2,                                      !- Rule Order
  {7a73fe2e-36bc-4a43-8dd1-657a60f21445}, !- Day Schedule Name
  Yes,                                    !- Apply Sunday
  ,                                       !- Apply Monday
  ,                                       !- Apply Tuesday
  ,                                       !- Apply Wednesday
  ,                                       !- Apply Thursday
  ,                                       !- Apply Friday
  Yes,                                    !- Apply Saturday
  ,                                       !- Apply Holiday
  DateRange,                              !- Date Specification Type
  7,                                      !- Start Month
  1,                                      !- Start Day
  9,                                      !- End Month
  1;                                      !- End Day

OS:Schedule:Day,
  {7a73fe2e-36bc-4a43-8dd1-657a60f21445}, !- Handle
  0800|1600|SecondarySchool|default|occ |7/1-9/1|Sat/Sun, !- Name
  {eac7777f-3557-493b-a861-474bb23c7349}, !- Schedule Type Limits Name
  ,                                       !- Interpolate to Timestep
  24,                                     !- Hour 1
  0,                                      !- Minute 1
  0;                                      !- Value Until Time 1

OS:Schedule:Rule,
  {ca9bc242-0487-4de8-acef-ad03abd1c390}, !- Handle
  0800|1600|SecondarySchool|default|occ |9/1-12/31|Mon/Tue/Wed/Thu/Fri/Sat/Sun Rule, !- Name
  {bc72319b-aa53-4718-b40c-b213869ec572}, !- Schedule Ruleset Name
  3,                                      !- Rule Order
  {c73bea0b-96d7-4a14-8ebb-6ce6f70a2e48}, !- Day Schedule Name
  Yes,                                    !- Apply Sunday
  Yes,                                    !- Apply Monday
  Yes,                                    !- Apply Tuesday
  Yes,                                    !- Apply Wednesday
  Yes,                                    !- Apply Thursday
  Yes,                                    !- Apply Friday
  Yes,                                    !- Apply Saturday
  ,                                       !- Apply Holiday
  DateRange,                              !- Date Specification Type
  9,                                      !- Start Month
  1,                                      !- Start Day
  12,                                     !- End Month
  31;                                     !- End Day

OS:Schedule:Day,
  {c73bea0b-96d7-4a14-8ebb-6ce6f70a2e48}, !- Handle
  0800|1600|SecondarySchool|default|occ |9/1-12/31|Mon/Tue/Wed/Thu/Fri/Sat/Sun, !- Name
  {eac7777f-3557-493b-a861-474bb23c7349}, !- Schedule Type Limits Name
  ,                                       !- Interpolate to Timestep
  8,                                      !- Hour 1
  0,                                      !- Minute 1
  0,                                      !- Value Until Time 1
  16,                                     !- Hour 2
  0,                                      !- Minute 2
  0.7,                                    !- Value Until Time 2
  21,                                     !- Hour 3
  0,                                      !- Minute 3
  0.15,                                   !- Value Until Time 3
  24,                                     !- Hour 4
  0,                                      !- Minute 4
  0;                                      !- Value Until Time 4

OS:Schedule:Rule,
  {ae697643-4f75-4d2f-8d77-01f098d1124c}, !- Handle
  0800|1600|SecondarySchool|default|occ |9/1-12/31|Sat/Sun Rule, !- Name
  {bc72319b-aa53-4718-b40c-b213869ec572}, !- Schedule Ruleset Name
  4,                                      !- Rule Order
  {c5466861-a164-46dc-b4d4-ccf25cba8d54}, !- Day Schedule Name
  Yes,                                    !- Apply Sunday
  ,                                       !- Apply Monday
  ,                                       !- Apply Tuesday
  ,                                       !- Apply Wednesday
  ,                                       !- Apply Thursday
  ,                                       !- Apply Friday
  Yes,                                    !- Apply Saturday
  ,                                       !- Apply Holiday
  DateRange,                              !- Date Specification Type
  9,                                      !- Start Month
  1,                                      !- Start Day
  12,                                     !- End Month
  31;                                     !- End Day

OS:Schedule:Day,
  {c5466861-a164-46dc-b4d4-ccf25cba8d54}, !- Handle
  0800|1600|SecondarySchool|default|occ |9/1-12/31|Sat/Sun, !- Name
  {eac7777f-3557-493b-a861-474bb23c7349}, !- Schedule Type Limits Name
  ,                                       !- Interpolate to Timestep
  24,                                     !- Hour 1
  0,                                      !- Minute 1
  0;                                      !- Value Until Time 1

OS:Schedule:Ruleset,
  {74c7d54f-db4b-4c89-bbbe-dfb58b788d14}, !- Handle
  0800|1600|SecondarySchool|default|activity, !- Name
  {ca28e167-590f-4da3-bb29-1cf10db334d6}, !- Schedule Type Limits Name
  {d53010dd-bed7-4704-b6ad-3f66f0970529}, !- Default Day Schedule Name
  {e78924d9-5190-4594-afa0-176d92bf1b83}, !- Summer Design Day Schedule Name