
OS:Version,
  {9563cd38-7f32-41d3-9b35-c77dcc6a82fc}, !- Handle
  1.5.5;                                  !- Version Identifier

OS:ClimateZones,
  {135edfab-17e7-40db-a436-27d385a8cd6d}, !- Handle
  ,                                       !- Active Institution
  ,                                       !- Active Year
  ASHRAE,                                 !- Climate Zone Institution Name 1
  ANSI/ASHRAE Standard 169,               !- Climate Zone Document Name 1
  2006,                                   !- Climate Zone Document Year 1
  ,                                       !- Climate Zone Value 1
  CEC,                                    !- Climate Zone Institution Name 2
  California Climate Zone Descriptions,   !- Climate Zone Document Name 2
  1995,                                   !- Climate Zone Document Year 2
  ;                                       !- Climate Zone Value 2

OS:YearDescription,
  {513d8dda-86cb-442a-b01c-1f7f0e0ac70e}; !- Handle

OS:RadianceParameters,
  {270a96f1-3c86-4b75-a667-cdf22790e2c8}, !- Handle
  1,                                      !- Accumulated Rays per Record
  0,                                      !- Direct Threshold
  1,                                      !- Direct Certainty
  1,                                      !- Direct Jitter
  1,                                      !- Direct Pretest
  6,                                      !- Ambient Bounces VMX
  2,                                      !- Ambient Bounces DMX
  4050,                                   !- Ambient Divisions VMX
  512,                                    !- Ambient Divisions DMX
  256,                                    !- Ambient Supersamples
  0.001,                                  !- Limit Weight VMX
  0.001,                                  !- Limit Weight DMX
  500,                                    !- Klems Sampling Density
  146;                                    !- Sky Discretization Resolution

OS:SimulationControl,
  {2c487a4c-bac9-4ac5-b669-1e49d9da7c2b}, !- Handle
  ,                                       !- Do Zone Sizing Calculation
  ,                                       !- Do System Sizing Calculation
  ,                                       !- Do Plant Sizing Calculation
  No,                                     !- Run Simulation for Sizing Periods
  ,                                       !- Run Simulation for Weather File Run Periods
  0.04,                                   !- Loads Convergence Tolerance Value
  ,                                       !- Temperature Convergence Tolerance Value {deltaC}
  ,                                       !- Solar Distribution
  ,                                       !- Maximum Number of Warmup Days
  2;                                      !- Minimum Number of Warmup Days

OS:Sizing:Parameters,
  {dde5af6f-7923-4600-a28a-7556673a0266}, !- Handle
  1.25,                                   !- Heating Sizing Factor
  1.15;                                   !- Cooling Sizing Factor

OS:ProgramControl,
  {05027a99-f2b3-4aeb-afc6-1425fbb4371d}; !- Handle

OS:Timestep,
  {4ebc9f1e-4707-402e-9844-67eb1ffbd522}, !- Handle
  2;                                      !- Number of Timesteps per Hour

OS:OutputControl:ReportingTolerances,
  {65797aa2-06a9-45fe-b69d-bc6e060399d3}; !- Handle

OS:ConvergenceLimits,
  {9fc11aba-8822-4f3d-970c-46391ba4040d}; !- Handle

OS:ShadowCalculation,
  {ca758bea-4416-4626-9bba-3d8795c79bd6}, !- Handle
  7,                                      !- Calculation Frequency
  15000;                                  !- Maximum Figures in Shadow Overlap Calculations

OS:SurfaceConvectionAlgorithm:Inside,
  {aaabfc36-718a-4ab0-b622-f186ebb45230}, !- Handle
  TARP;                                   !- Algorithm

OS:SurfaceConvectionAlgorithm:Outside,
  {9a0a9f6f-4bbd-4b12-a121-9492a1fcd7d6}, !- Handle
  DOE-2;                                  !- Algorithm

OS:HeatBalanceAlgorithm,
  {9d93e563-e1e0-46d7-9e39-d1c8aceb7212}, !- Handle
  ConductionTransferFunction,             !- Algorithm
  200;                                    !- Surface Temperature Upper Limit {F}

OS:ZoneAirHeatBalanceAlgorithm,
  {8520d93e-310f-4696-9bcd-36228bfdd743}, !- Handle
  AnalyticalSolution;                     !- Algorithm

OS:ZoneAirContaminantBalance,
  {eb5fc3ae-fb22-4160-8fcb-3e3b22b000d3}; !- Handle

OS:ZoneCapacitanceMultiplier:ResearchSpecial,
  {4020ce4f-5a7a-4849-8028-8305d7b751b1}, !- Handle
  ,                                       !- Temperature Capacity Multiplier
  ,                                       !- Humidity Capacity Multiplier
  ;                                       !- Carbon Dioxide Capacity Multiplier

OS:RunPeriod,
  {28df894d-6af9-4fb8-8f56-df1753344aa3}, !- Handle
  Run Period 1,                           !- Name
  1,                                      !- Begin Month
  1,                                      !- Begin Day of Month
  12,                                     !- End Month
  31,                                     !- End Day of Month
  ,                                       !- Use Weather File Holidays and Special Days
  ,                                       !- Use Weather File Daylight Saving Period
  ,                                       !- Apply Weekend Holiday Rule
  ,                                       !- Use Weather File Rain Indicators
  ,                                       !- Use Weather File Snow Indicators
  ;                                       !- Number of Times Runperiod to be Repeated

OS:Building,
  {bf305633-c5a1-4881-9edf-ca5e1a8e1274}, !- Handle
  Building 1,                             !- Name
  ,                                       !- Building Sector Type
  ,                                       !- North Axis {deg}
  ,                                       !- Nominal Floor to Floor Height {m}
  ,                                       !- Space Type Name
  ,                                       !- Default Construction Set Name
  {8f1ea48c-2a51-4c13-8e85-63763cd6ad3c}, !- Default Schedule Set Name
  ,                                       !- Standards Number of Stories
  ,                                       !- Standards Number of Above Ground Stories
  SecondarySchool;                        !- Standards Building Type

OS:LifeCycleCost:Parameters,
  {231cf8a0-f0e7-4251-a99f-11f0d464e661}, !- Handle
  FEMP,                                   !- Analysis Type
  ,                                       !- Discounting Convention
  ,                                       !- Inflation Approach
  ,                                       !- Real Discount Rate
  ,                                       !- Nominal Discount Rate
  ,                                       !- Inflation
  ,                                       !- Base Date Month
  ,                                       !- Base Date Year
  ,                                       !- Service Date Month
  ,                                       !- Service Date Year
  ,                                       !- Length of Study Period in Years
  ,                                       !- Tax Rate
  ,                                       !- Depreciation Method
  Yes;                                    !- Use NIST Fuel Escalation Rates

OS:Facility,
  {3ba8e45b-b833-44eb-a723-ea6c3946dc96}; !- Handle

OS:SpaceType,
  {604df552-92d4-431c-b16f-d3ce0d8d4413}, !- Handle
  SecondarySchool|BlendEdu|DOE Ref Pre-1980|ASHRAE 169-2006-5A, !- Name
  {372c1987-d6f4-433d-8086-eb534480ad2d}, !- Default Construction Set Name
  ,                                       !- Default Schedule Set Name
  {4109543d-5398-4ff7-9130-5f2a675a2b3d}, !- Group Rendering Name
  {c23c38b8-b869-493f-8fcc-63d19b52b497}, !- Design Specification Outdoor Air Object Name
  SecondarySchool,                        !- Standards Building Type
  BlendEdu;                               !- Standards Space Type

OS:Rendering:Color,
  {4109543d-5398-4ff7-9130-5f2a675a2b3d}, !- Handle
  Rendering Color 1,                      !- Name
  120,                                    !- Rendering Red Value
  230,                                    !- Rendering Green Value
  199;                                    !- Rendering Blue Value

OS:SpaceType,
  {dc7f334d-12c1-4009-9d8c-5a82d337cd87}, !- Handle
  SecondarySchool|BlendOff|DOE Ref Pre-1980|ASHRAE 169-2006-5A, !- Name
  {372c1987-d6f4-433d-8086-eb534480ad2d}, !- Default Construction Set Name
  ,                                       !- Default Schedule Set Name
  {cfbf1fb6-85e5-4620-975c-96290f48b0cb}, !- Group Rendering Name
  {f0d54614-d971-4384-a721-40364f156672}, !- Design Specification Outdoor Air Object Name
  SecondarySchool,                        !- Standards Building Type
  BlendOff;                               !- Standards Space Type

OS:Rendering:Color,
  {cfbf1fb6-85e5-4620-975c-96290f48b0cb}, !- Handle
  Rendering Color 2,                      !- Name
  120,                                    !- Rendering Red Value
  230,                                    !- Rendering Green Value
  199;                                    !- Rendering Blue Value

OS:SpaceType,
  {4a6c0e4f-13ee-4b71-a31f-ffd466327627}, !- Handle
  SecondarySchool|Gym|DOE Ref Pre-1980|ASHRAE 169-2006-5A, !- Name
  {372c1987-d6f4-433d-8086-eb534480ad2d}, !- Default Construction Set Name
  {74fec492-2d54-4a93-b1fa-1c1613865283}, !- Default Schedule Set Name
  {f1c4e6f9-80b2-4f04-9643-cc5537ba6d44}, !- Group Rendering Name
  {08be4737-096c-4b46-91b7-189a0f33b615}, !- Design Specification Outdoor Air Object Name
  SecondarySchool,                        !- Standards Building Type
  Gym;                                    !- Standards Space Type

OS:Rendering:Color,
  {f1c4e6f9-80b2-4f04-9643-cc5537ba6d44}, !- Handle
  Rendering Color 3,                      !- Name
  154,                                    !- Rendering Red Value
  230,                                    !- Rendering Green Value
  120;                                    !- Rendering Blue Value

OS:SpaceType,
  {5ff90d22-b2bb-41f8-b14e-86800950b651}, !- Handle
  SecondarySchool|Auditorium|DOE Ref Pre-1980|ASHRAE 169-2006-5A, !- Name
  {372c1987-d6f4-433d-8086-eb534480ad2d}, !- Default Construction Set Name
  {990373a5-7d02-4711-9a0b-07e4c7bcdee5}, !- Default Schedule Set Name
  {f6a7258f-3348-46fb-920d-a80dcabff949}, !- Group Rendering Name
  {f6fbb32b-3309-4506-a121-9c9908ffa35b}, !- Design Specification Outdoor Air Object Name
  SecondarySchool,                        !- Standards Building Type
  Auditorium;                             !- Standards Space Type

OS:Rendering:Color,
  {f6a7258f-3348-46fb-920d-a80dcabff949}, !- Handle
  Rendering Color 4,                      !- Name
  230,                                    !- Rendering Red Value
  196,                                    !- Rendering Green Value
  120;                                    !- Rendering Blue Value

OS:SpaceType,
  {96e8677b-b374-4357-883c-d00a618da7d4}, !- Handle
  SecondarySchool|Library|DOE Ref Pre-1980|ASHRAE 169-2006-5A, !- Name
  {372c1987-d6f4-433d-8086-eb534480ad2d}, !- Default Construction Set Name
  {1642db0a-f8cf-4225-bee9-4bf6cc7cbdce}, !- Default Schedule Set Name
  {6b7e1306-1384-4869-b29b-836b8c733b20}, !- Group Rendering Name
  {b7ea2810-f5c1-42e1-ac09-a04c1fa672b5}, !- Design Specification Outdoor Air Object Name
  SecondarySchool,                        !- Standards Building Type
  Library;                                !- Standards Space Type

OS:Rendering:Color,
  {6b7e1306-1384-4869-b29b-836b8c733b20}, !- Handle
  Rendering Color 5,                      !- Name
  230,                                    !- Rendering Red Value
  196,                                    !- Rendering Green Value
  120;                                    !- Rendering Blue Value

OS:SpaceType,
  {0dbb1a06-a53e-4e4d-a90c-9a5ac0761418}, !- Handle
  SecondarySchool|Cafeteria|DOE Ref Pre-1980|ASHRAE 169-2006-5A, !- Name
  {372c1987-d6f4-433d-8086-eb534480ad2d}, !- Default Construction Set Name
  {04a5637f-d214-4bab-a9d9-0c42aafffa1f}, !- Default Schedule Set Name
  {70b29089-641b-4e9e-909b-c33725db3c57}, !- Group Rendering Name
  {fee4fc87-b60c-4660-9680-862f7a62777c}, !- Design Specification Outdoor Air Object Name
  SecondarySchool,                        !- Standards Building Type
  Cafeteria;                              !- Standards Space Type

OS:Rendering:Color,
  {70b29089-641b-4e9e-909b-c33725db3c57}, !- Handle
  Rendering Color 6,                      !- Name
  31,                                     !- Rendering Red Value
  169,                                    !- Rendering Green Value
  34;                                     !- Rendering Blue Value

OS:SpaceType,
  {7ebb3535-13e7-41a3-97ee-5a6d2e0a3e25}, !- Handle
  SecondarySchool|Kitchen|DOE Ref Pre-1980|ASHRAE 169-2006-5A, !- Name
  {372c1987-d6f4-433d-8086-eb534480ad2d}, !- Default Construction Set Name
  {baf24b26-64f4-46c5-93f7-92bada80d199}, !- Default Schedule Set Name
  {1eb7a284-7ca6-4638-9e73-4426ad47bd19}, !- Group Rendering Name
  {c3c8b48c-3aff-4a8d-89f0-3e783dd4873a}, !- Design Specification Outdoor Air Object Name
  SecondarySchool,                        !- Standards Building Type
  Kitchen;                                !- Standards Space Type

OS:Rendering:Color,
  {1eb7a284-7ca6-4638-9e73-4426ad47bd19}, !- Handle
  Rendering Color 7,                      !- Name
  78,                                     !- Rendering Red Value
  222,                                    !- Rendering Green Value
  133;                                    !- Rendering Blue Value

OS:Schedule:Ruleset,
  {5b8d4633-627d-4ffe-a58b-69c4087688ab}, !- Handle
  0800|1600|SecondarySchool|default|hoo,  !- Name
  {f7782ccd-bb7b-4954-a7fd-7cc03dddc535}, !- Schedule Type Limits Name
  {7f809513-d85f-4fc6-a454-88ef98394f82}, !- Default Day Schedule Name
  {d6bb7ce9-5063-4e14-8f80-03e8cab55873}, !- Summer Design Day Schedule Name
  {00eec285-1742-4886-abb1-e55091bad3ab}; !- Winter Design Day Schedule Name

OS:Schedule:Day,
  {7f809513-d85f-4fc6-a454-88ef98394f82}, !- Handle
  0800|1600|SecondarySchool|default|hoo Schedule Week Day, !- Name
  {f7782ccd-bb7b-4954-a7fd-7cc03dddc535}, !- Schedule Type Limits Name
  ,                                       !- Interpolate to Timestep
  8,                                      !- Hour 1
  0,                                      !- Minute 1
  0,                                      !- Value Until Time 1
  16,                                     !- Hour 2
  0,                                      !- Minute 2
  1,                                      !- Value Until Time 2
  24,                                     !- Hour 3
  0,                                      !- Minute 3
  0;                                      !- Value Until Time 3

OS:Schedule:Day,
  {e0e94fcb-a1a6-4c78-97bd-69cd8dc83997}, !- Handle
  Schedule Day 2,                         !- Name
  ,                                       !- Schedule Type Limits Name
  ,                                       !- Interpolate to Timestep
  24,                                     !- Hour 1
  0,                                      !- Minute 1
  0;                                      !- Value Until Time 1

OS:Schedule:Day,
  {00eec285-1742-4886-abb1-e55091bad3ab}, !- Handle
  0800|1600|SecondarySchool|default|hoo Winter Design Day, !- Name
  {f7782ccd-bb7b-4954-a7fd-7cc03dddc535}, !- Schedule Type Limits Name
  ,                                       !- Interpolate to Timestep
  24,                                     !- Hour 1
  0,                                      !- Minute 1
  0;                                      !- Value Until Time 1

OS:Schedule:Day,
  {b3e39109-dd6c-4928-888a-47d4f03167f5}, !- Handle
  Schedule Day 3,                         !- Name
  ,                                       !- Schedule Type Limits Name
  ,                                       !- Interpolate to Timestep
  24,                                     !- Hour 1
  0,                                      !- Minute 1
  0;                                      !- Value Until Time 1

OS:Schedule:Day,
  {d6bb7ce9-5063-4e14-8f80-03e8cab55873}, !- Handle
  0800|1600|SecondarySchool|default|hoo Summer Design Day, !- Name
  {f7782ccd-bb7b-4954-a7fd-7cc03dddc535}, !- Schedule Type Limits Name
  ,                                       !- Interpolate to Timestep
  24,                                     !- Hour 1
  0,                                      !- Minute 1
  1;                                      !- Value Until Time 1

OS:DefaultScheduleSet,
  {8f1ea48c-2a51-4c13-8e85-63763cd6ad3c}, !- Handle
  Building Hours of Operation,            !- Name
  {5b8d4633-627d-4ffe-a58b-69c4087688ab}, !- Hours of Operation Schedule Name
  ,                                       !- Number of People Schedule Name
  ,                                       !- People Activity Level Schedule Name
  ,                                       !- Lighting Schedule Name
  ,                                       !- Electric Equipment Schedule Name
  ,                                       !- Gas Equipment Schedule Name
  ,                                       !- Hot Water Equipment Schedule Name
  ,                                       !- Infiltration Schedule Name
  ,                                       !- Steam Equipment Schedule Name
  ;                                       !- Other Equipment Schedule Name

OS:ScheduleTypeLimits,
  {f7782ccd-bb7b-4954-a7fd-7cc03dddc535}, !- Handle
  OnOff,                                  !- Name
  0,                                      !- Lower Limit Value {BasedOnField A4}
  1,                                      !- Upper Limit Value {BasedOnField A4}
  Discrete,                               !- Numeric Type
  Availability;                           !- Unit Type

OS:Schedule:Ruleset,
  {8dd0e353-9beb-41e6-b1b1-2a4624ae8791}, !- Handle
  0800|1600|SecondarySchool|default|occ,  !- Name
  {90e06839-0853-4194-aaf2-29408ffbe5d4}, !- Schedule Type Limits Name
  {fabba343-05f8-4b10-bce5-f409a06a5706}, !- Default Day Schedule Name
  {1251380c-904a-47f0-a78e-b3c1e1456270}, !- Summer Design Day Schedule Name
  {c82f0ba1-1c27-4e33-8c32-8255785eaa49}; !- Winter Design Day Schedule Name

OS:ScheduleTypeLimits,
  {90e06839-0853-4194-aaf2-29408ffbe5d4}, !- Handle
  Occupancy Schedule Type Limits,         !- Name
  0,                                      !- Lower Limit Value {BasedOnField A4}
  1,                                      !- Upper Limit Value {BasedOnField A4}
  Continuous,                             !- Numeric Type
  Dimensionless;                          !- Unit Type

OS:Schedule:Day,
  {fabba343-05f8-4b10-bce5-f409a06a5706}, !- Handle
  0800|1600|SecondarySchool|default|occ |default, !- Name
  {90e06839-0853-4194-aaf2-29408ffbe5d4}, !- Schedule Type Limits Name
  ,                                       !- Interpolate to Timestep
  8,                                      !- Hour 1
  0,                                      !- Minute 1
  0,                                      !- Value Until Time 1
  16,                                     !- Hour 2
  0,                                      !- Minute 2
  0.7,                                    !- Value Until Time 2
  21,                                     !- Hour 3
  0,                                      !- Minute 3
  0.15,                                   !- Value Until Time 3
  24,                                     !- Hour 4
  0,                                      !- Minute 4
  0;                                      !- Value Until Time 4

OS:Schedule:Day,
  {1251380c-904a-47f0-a78e-b3c1e1456270}, !- Handle
  0800|1600|SecondarySchool|default|occ Summer Design Day, !- Name
  {90e06839-0853-4194-aaf2-29408ffbe5d4}, !- Schedule Type Limits Name
  ,                                       !- Interpolate to Timestep
  8,                                      !- Hour 1
  0,                                      !- Minute 1
  0,                                      !- Value Until Time 1
  16,                                     !- Hour 2
  0,                                      !- Minute 2
  1,                                      !- Value Until Time 2
  21,                                     !- Hour 3
  0,                                      !- Minute 3
  0.15,                                   !- Value Until Time 3
  24,                                     !- Hour 4
  0,                                      !- Minute 4
  0;                                      !- Value Until Time 4

OS:Schedule:Day,
  {c82f0ba1-1c27-4e33-8c32-8255785eaa49}, !- Handle
  0800|1600|SecondarySchool|default|occ Winter Design Day, !- Name
  {90e06839-0853-4194-aaf2-29408ffbe5d4}, !- Schedule Type Limits Name
  ,                                       !- Interpolate to Timestep
  24,                                     !- Hour 1
  0,                                      !- Minute 1
  0;                                      !- Value Until Time 1

OS:Schedule:Rule,
  {da37895f-6e12-494a-836a-a19a5fcb158a}, !- Handle
  0800|1600|SecondarySchool|default|occ |1/1-6/30|Sat/Sun Rule, !- Name
  {8dd0e353-9beb-41e6-b1b1-2a4624ae8791}, !- Schedule Ruleset Name
  0,                                      !- Rule Order
  {f7015573-b6ab-439d-9e7f-ba3c89beafae}, !- Day Schedule Name
  Yes,                                    !- Apply Sunday
  ,                                       !- Apply Monday
  ,                                       !- Apply Tuesday
  ,                                       !- Apply Wednesday
  ,                                       !- Apply Thursday
  ,                                       !- Apply Friday
  Yes,                                    !- Apply Saturday
  ,                                       !- Apply Holiday
  DateRange,                              !- Date Specification Type
  1,                                      !- Start Month
  1,                                      !- Start Day
  6,                                      !- End Month
  30;                                     !- End Day

OS:Schedule:Day,
  {f7015573-b6ab-439d-9e7f-ba3c89beafae}, !- Handle
  0800|1600|SecondarySchool|default|occ |1/1-6/30|Sat/Sun, !- Name
  {90e06839-0853-4194-aaf2-29408ffbe5d4}, !- Schedule Type Limits Name
  ,                                       !- Interpolate to Timestep
  24,                                     !- Hour 1
  0,                                      !- Minute 1
  0;                                      !- Value Until Time 1

OS:Schedule:Rule,
  {41cd776a-a3d3-4f44-96c0-350d022d2ce5}, !- Handle
  0800|1600|SecondarySchool|default|occ |7/1-9/1|Mon/Tue/Wed/Thu/Fri/Sat/Sun Rule, !- Name
  {8dd0e353-9beb-41e6-b1b1-2a4624ae8791}, !- Schedule Ruleset Name
  1,                                      !- Rule Order
  {f7240e66-49ba-40bb-af58-6ac123b3ae2c}, !- Day Schedule Name
  Yes,                                    !- Apply Sunday
  Yes,                                    !- Apply Monday
  Yes,                                    !- Apply Tuesday
  Yes,                                    !- Apply Wednesday
  Yes,                                    !- Apply Thursday
  Yes,                                    !- Apply Friday
  Yes,                                    !- Apply Saturday
  ,                                       !- Apply Holiday
  DateRange,                              !- Date Specification Type
  7,                                      !- Start Month
  1,                                      !- Start Day
  9,                                      !- End Month
  1;                                      !- End Day

OS:Schedule:Day,
  {f7240e66-49ba-40bb-af58-6ac123b3ae2c}, !- Handle
  0800|1600|SecondarySchool|default|occ |7/1-9/1|Mon/Tue/Wed/Thu/Fri/Sat/Sun, !- Name
  {90e06839-0853-4194-aaf2-29408ffbe5d4}, !- Schedule Type Limits Name
  ,                                       !- Interpolate to Timestep
  8,                                      !- Hour 1
  0,                                      !- Minute 1
  0,                                      !- Value Until Time 1
  21,                                     !- Hour 2
  0,                                      !- Minute 2
  0.15,                                   !- Value Until Time 2
  24,                                     !- Hour 3
  0,                                      !- Minute 3
  0;                                      !- Value Until Time 3

OS:Schedule:Rule,
  {507438fa-cccb-416e-9530-db85d25243d5}, !- Handle
  0800|1600|SecondarySchool|default|occ |7/1-9/1|Sat/Sun Rule, !- Name
  {8dd0e353-9beb-41e6-b1b1-2a4624ae8791}, !- Schedule Ruleset Name
  2,                                      !- Rule Order
  {f36a3803-81f1-49ab-907b-f02d53efbca8}, !- Day Schedule Name
  Yes,                                    !- Apply Sunday
  ,                                       !- Apply Monday
  ,                                       !- Apply Tuesday
  ,                                       !- Apply Wednesday
  ,                                       !- Apply Thursday
  ,                                       !- Apply Friday
  Yes,                                    !- Apply Saturday
  ,                                       !- Apply Holiday
  DateRange,                              !- Date Specification Type
  7,                                      !- Start Month
  1,                                      !- Start Day
  9,                                      !- End Month
  1;                                      !- End Day

OS:Schedule:Day,
  {f36a3803-81f1-49ab-907b-f02d53efbca8}, !- Handle
  0800|1600|SecondarySchool|default|occ |7/1-9/1|Sat/Sun, !- Name
  {90e06839-0853-4194-aaf2-29408ffbe5d4}, !- Schedule Type Limits Name
  ,                                       !- Interpolate to Timestep
  24,                                     !- Hour 1
  0,                                      !- Minute 1
  0;                                      !- Value Until Time 1

OS:Schedule:Rule,
  {1c3ca5e6-4c8f-4162-b2bd-e151147dfcc0}, !- Handle
  0800|1600|SecondarySchool|default|occ |9/1-12/31|Mon/Tue/Wed/Thu/Fri/Sat/Sun Rule, !- Name
  {8dd0e353-9beb-41e6-b1b1-2a4624ae8791}, !- Schedule Ruleset Name
  3,                                      !- Rule Order
  {db42b88a-50fa-4415-b8c2-26fea4efe4ff}, !- Day Schedule Name
  Yes,                                    !- Apply Sunday
  Yes,                                    !- Apply Monday
  Yes,                                    !- Apply Tuesday
  Yes,                                    !- Apply Wednesday
  Yes,                                    !- Apply Thursday
  Yes,                                    !- Apply Friday
  Yes,                                    !- Apply Saturday
  ,                                       !- Apply Holiday
  DateRange,                              !- Date Specification Type
  9,                                      !- Start Month
  1,                                      !- Start Day
  12,                                     !- End Month
  31;                                     !- End Day

OS:Schedule:Day,
  {db42b88a-50fa-4415-b8c2-26fea4efe4ff}, !- Handle
  0800|1600|SecondarySchool|default|occ |9/1-12/31|Mon/Tue/Wed/Thu/Fri/Sat/Sun, !- Name
  {90e06839-0853-4194-aaf2-29408ffbe5d4}, !- Schedule Type Limits Name
  ,                                       !- Interpolate to Timestep
  8,                                      !- Hour 1
  0,                                      !- Minute 1
  0,                                      !- Value Until Time 1
  16,                                     !- Hour 2
  0,                                      !- Minute 2
  0.7,                                    !- Value Until Time 2
  21,                                     !- Hour 3
  0,                                      !- Minute 3
  0.15,                                   !- Value Until Time 3
  24,                                     !- Hour 4
  0,                                      !- Minute 4
  0;                                      !- Value Until Time 4

OS:Schedule:Rule,
  {f42a8dd3-8a81-49ee-9103-5773cc5840b6}, !- Handle
  0800|1600|SecondarySchool|default|occ |9/1-12/31|Sat/Sun Rule, !- Name
  {8dd0e353-9beb-41e6-b1b1-2a4624ae8791}, !- Schedule Ruleset Name
  4,                                      !- Rule Order
  {265e17a9-09d3-4ad2-b48b-fadef48581a4}, !- Day Schedule Name
  Yes,                                    !- Apply Sunday
  ,                                       !- Apply Monday
  ,                                       !- Apply Tuesday
  ,                                       !- Apply Wednesday
  ,                                       !- Apply Thursday
  ,                                       !- Apply Friday
  Yes,                                    !- Apply Saturday
  ,                                       !- Apply Holiday
  DateRange,                              !- Date Specification Type
  9,                                      !- Start Month
  1,                                      !- Start Day
  12,                                     !- End Month
  31;                                     !- End Day

OS:Schedule:Day,
  {265e17a9-09d3-4ad2-b48b-fadef48581a4}, !- Handle
  0800|1600|SecondarySchool|default|occ |9/1-12/31|Sat/Sun, !- Name
  {90e06839-0853-4194-aaf2-29408ffbe5d4}, !- Schedule Type Limits Name
  ,                                       !- Interpolate to Timestep
  24,                                     !- Hour 1
  0,                                      !- Minute 1
  0;                                      !- Value Until Time 1

OS:Schedule:Ruleset,
  {349fa1d6-224c-4720-b8c7-ce0bb72c76e7}, !- Handle
  0800|1600|SecondarySchool|default|activity, !- Name
  {efc02dce-492e-4ba0-adea-03654b871217}, !- Schedule Type Limits Name
  {3967bc0d-bc95-4b73-bdba-23d2b09b6e63}, !- Default Day Schedule Name
  {205fdfc7-1783-443c-be3c-fc8971075871}, !- Summer Design Day Schedule Name