
OS:Version,
  {c535bf69-81f3-4f29-afcc-aa163d11bd61}, !- Handle
  1.5.5;                                  !- Version Identifier

OS:ClimateZones,
  {135edfab-17e7-40db-a436-27d385a8cd6d}, !- Handle
  ,                                       !- Active Institution
  ,                                       !- Active Year
  ASHRAE,                                 !- Climate Zone Institution Name 1
  ANSI/ASHRAE Standard 169,               !- Climate Zone Document Name 1
  2006,                                   !- Climate Zone Document Year 1
  ,                                       !- Climate Zone Value 1
  CEC,                                    !- Climate Zone Institution Name 2
  California Climate Zone Descriptions,   !- Climate Zone Document Name 2
  1995,                                   !- Climate Zone Document Year 2
  ;                                       !- Climate Zone Value 2

OS:YearDescription,
  {513d8dda-86cb-442a-b01c-1f7f0e0ac70e}; !- Handle

OS:RadianceParameters,
  {270a96f1-3c86-4b75-a667-cdf22790e2c8}, !- Handle
  1,                                      !- Accumulated Rays per Record
  0,                                      !- Direct Threshold
  1,                                      !- Direct Certainty
  1,                                      !- Direct Jitter
  1,                                      !- Direct Pretest
  6,                                      !- Ambient Bounces VMX
  2,                                      !- Ambient Bounces DMX
  4050,                                   !- Ambient Divisions VMX
  512,                                    !- Ambient Divisions DMX
  256,                                    !- Ambient Supersamples
  0.001,                                  !- Limit Weight VMX
  0.001,                                  !- Limit Weight DMX
  500,                                    !- Klems Sampling Density
  146;                                    !- Sky Discretization Resolution

OS:SimulationControl,
  {2c487a4c-bac9-4ac5-b669-1e49d9da7c2b}, !- Handle
  ,                                       !- Do Zone Sizing Calculation
  ,                                       !- Do System Sizing Calculation
  ,                                       !- Do Plant Sizing Calculation
  No,                                     !- Run Simulation for Sizing Periods
  ,                                       !- Run Simulation for Weather File Run Periods
  0.04,                                   !- Loads Convergence Tolerance Value
  ,                                       !- Temperature Convergence Tolerance Value {deltaC}
  ,                                       !- Solar Distribution
  ,                                       !- Maximum Number of Warmup Days
  2;                                      !- Minimum Number of Warmup Days

OS:Sizing:Parameters,
  {dde5af6f-7923-4600-a28a-7556673a0266}, !- Handle
  1.25,                                   !- Heating Sizing Factor
  1.15;                                   !- Cooling Sizing Factor

OS:ProgramControl,
  {05027a99-f2b3-4aeb-afc6-1425fbb4371d}; !- Handle

OS:Timestep,
  {4ebc9f1e-4707-402e-9844-67eb1ffbd522}, !- Handle
  2;                                      !- Number of Timesteps per Hour

OS:OutputControl:ReportingTolerances,
  {65797aa2-06a9-45fe-b69d-bc6e060399d3}; !- Handle

OS:ConvergenceLimits,
  {9fc11aba-8822-4f3d-970c-46391ba4040d}; !- Handle

OS:ShadowCalculation,
  {ca758bea-4416-4626-9bba-3d8795c79bd6}, !- Handle
  7,                                      !- Calculation Frequency
  15000;                                  !- Maximum Figures in Shadow Overlap Calculations

OS:SurfaceConvectionAlgorithm:Inside,
  {aaabfc36-718a-4ab0-b622-f186ebb45230}, !- Handle
  TARP;                                   !- Algorithm

OS:SurfaceConvectionAlgorithm:Outside,
  {9a0a9f6f-4bbd-4b12-a121-9492a1fcd7d6}, !- Handle
  DOE-2;                                  !- Algorithm

OS:HeatBalanceAlgorithm,
  {9d93e563-e1e0-46d7-9e39-d1c8aceb7212}, !- Handle
  ConductionTransferFunction,             !- Algorithm
  200;                                    !- Surface Temperature Upper Limit {F}

OS:ZoneAirHeatBalanceAlgorithm,
  {8520d93e-310f-4696-9bcd-36228bfdd743}, !- Handle
  AnalyticalSolution;                     !- Algorithm

OS:ZoneAirContaminantBalance,
  {eb5fc3ae-fb22-4160-8fcb-3e3b22b000d3}; !- Handle

OS:ZoneCapacitanceMultiplier:ResearchSpecial,
  {4020ce4f-5a7a-4849-8028-8305d7b751b1}, !- Handle
  ,                                       !- Temperature Capacity Multiplier
  ,                                       !- Humidity Capacity Multiplier
  ;                                       !- Carbon Dioxide Capacity Multiplier

OS:RunPeriod,
  {28df894d-6af9-4fb8-8f56-df1753344aa3}, !- Handle
  Run Period 1,                           !- Name
  1,                                      !- Begin Month
  1,                                      !- Begin Day of Month
  12,                                     !- End Month
  31,                                     !- End Day of Month
  ,                                       !- Use Weather File Holidays and Special Days
  ,                                       !- Use Weather File Daylight Saving Period
  ,                                       !- Apply Weekend Holiday Rule
  ,                                       !- Use Weather File Rain Indicators
  ,                                       !- Use Weather File Snow Indicators
  ;                                       !- Number of Times Runperiod to be Repeated

OS:Building,
  {bf305633-c5a1-4881-9edf-ca5e1a8e1274}, !- Handle
  Building 1,                             !- Name
  ,                                       !- Building Sector Type
  ,                                       !- North Axis {deg}
  ,                                       !- Nominal Floor to Floor Height {m}
  ,                                       !- Space Type Name
  ,                                       !- Default Construction Set Name
  {62312a81-a6f6-465c-be56-3b7a14b553fc}, !- Default Schedule Set Name
  ,                                       !- Standards Number of Stories
  ,                                       !- Standards Number of Above Ground Stories
  SecondarySchool;                        !- Standards Building Type

OS:LifeCycleCost:Parameters,
  {231cf8a0-f0e7-4251-a99f-11f0d464e661}, !- Handle
  FEMP,                                   !- Analysis Type
  ,                                       !- Discounting Convention
  ,                                       !- Inflation Approach
  ,                                       !- Real Discount Rate
  ,                                       !- Nominal Discount Rate
  ,                                       !- Inflation
  ,                                       !- Base Date Month
  ,                                       !- Base Date Year
  ,                                       !- Service Date Month
  ,                                       !- Service Date Year
  ,                                       !- Length of Study Period in Years
  ,                                       !- Tax Rate
  ,                                       !- Depreciation Method
  Yes;                                    !- Use NIST Fuel Escalation Rates

OS:Facility,
  {3ba8e45b-b833-44eb-a723-ea6c3946dc96}; !- Handle

OS:SpaceType,
  {799a393b-3b2a-4a54-91be-2ddd47abb73d}, !- Handle
  SecondarySchool|BlendEdu|DOE Ref 1980-2004|ASHRAE 169-2006-5A, !- Name
  {fe59da52-fdcd-4a02-ac55-a9236544ed6b}, !- Default Construction Set Name
  ,                                       !- Default Schedule Set Name
  {c564ff97-83bf-4c2a-b861-ec68c34f4c53}, !- Group Rendering Name
  {34eae3b4-f92e-40d3-a168-503cc36a572a}, !- Design Specification Outdoor Air Object Name
  SecondarySchool,                        !- Standards Building Type
  BlendEdu;                               !- Standards Space Type

OS:Rendering:Color,
  {c564ff97-83bf-4c2a-b861-ec68c34f4c53}, !- Handle
  Rendering Color 1,                      !- Name
  120,                                    !- Rendering Red Value
  230,                                    !- Rendering Green Value
  199;                                    !- Rendering Blue Value

OS:SpaceType,
  {0fac6828-1f5a-4da5-beef-f2fcf0676ea6}, !- Handle
  SecondarySchool|BlendOff|DOE Ref 1980-2004|ASHRAE 169-2006-5A, !- Name
  {fe59da52-fdcd-4a02-ac55-a9236544ed6b}, !- Default Construction Set Name
  ,                                       !- Default Schedule Set Name
  {0e9e4c0c-9364-407f-8321-41d62c08ea4f}, !- Group Rendering Name
  {5b314952-c830-4b97-961c-0f7e7c3fb677}, !- Design Specification Outdoor Air Object Name
  SecondarySchool,                        !- Standards Building Type
  BlendOff;                               !- Standards Space Type

OS:Rendering:Color,
  {0e9e4c0c-9364-407f-8321-41d62c08ea4f}, !- Handle
  Rendering Color 2,                      !- Name
  120,                                    !- Rendering Red Value
  230,                                    !- Rendering Green Value
  199;                                    !- Rendering Blue Value

OS:SpaceType,
  {ecd3f8d1-1924-4706-93d5-ed8e252e2db0}, !- Handle
  SecondarySchool|Gym|DOE Ref 1980-2004|ASHRAE 169-2006-5A, !- Name
  {fe59da52-fdcd-4a02-ac55-a9236544ed6b}, !- Default Construction Set Name
  {6fbdcdcd-edf7-4965-827f-8c120ebc9ee5}, !- Default Schedule Set Name
  {a3e9e87e-bce6-466c-b845-f1858726ca0b}, !- Group Rendering Name
  {acab4b6f-9edf-40f2-a271-59cfa9ac9c81}, !- Design Specification Outdoor Air Object Name
  SecondarySchool,                        !- Standards Building Type
  Gym;                                    !- Standards Space Type

OS:Rendering:Color,
  {a3e9e87e-bce6-466c-b845-f1858726ca0b}, !- Handle
  Rendering Color 3,                      !- Name
  154,                                    !- Rendering Red Value
  230,                                    !- Rendering Green Value
  120;                                    !- Rendering Blue Value

OS:SpaceType,
  {7a98f1a1-05e0-4408-9d90-7a26b8e2490f}, !- Handle
  SecondarySchool|Auditorium|DOE Ref 1980-2004|ASHRAE 169-2006-5A, !- Name
  {fe59da52-fdcd-4a02-ac55-a9236544ed6b}, !- Default Construction Set Name
  {b98711f2-82bd-4611-8d31-11d1b9221d58}, !- Default Schedule Set Name
  {a68e2342-f794-4e23-ba0b-40f608fa5c5b}, !- Group Rendering Name
  {73efe69e-09a5-420a-859f-7923a0aa2a13}, !- Design Specification Outdoor Air Object Name
  SecondarySchool,                        !- Standards Building Type
  Auditorium;                             !- Standards Space Type

OS:Rendering:Color,
  {a68e2342-f794-4e23-ba0b-40f608fa5c5b}, !- Handle
  Rendering Color 4,                      !- Name
  230,                                    !- Rendering Red Value
  196,                                    !- Rendering Green Value
  120;                                    !- Rendering Blue Value

OS:SpaceType,
  {37758460-82d4-4c96-aec9-1f63bda399fd}, !- Handle
  SecondarySchool|Library|DOE Ref 1980-2004|ASHRAE 169-2006-5A, !- Name
  {fe59da52-fdcd-4a02-ac55-a9236544ed6b}, !- Default Construction Set Name
  {542255d4-4e72-4a2b-8ec4-d2fffc81a2b8}, !- Default Schedule Set Name
  {ed2f9622-44e3-4767-bd34-092fa74c64f9}, !- Group Rendering Name
  {f943a8b7-4a0f-48a4-9115-2cbab5300a1f}, !- Design Specification Outdoor Air Object Name
  SecondarySchool,                        !- Standards Building Type
  Library;                                !- Standards Space Type

OS:Rendering:Color,
  {ed2f9622-44e3-4767-bd34-092fa74c64f9}, !- Handle
  Rendering Color 5,                      !- Name
  230,                                    !- Rendering Red Value
  196,                                    !- Rendering Green Value
  120;                                    !- Rendering Blue Value

OS:SpaceType,
  {792e768a-c894-46ab-ba69-cb4c4b77af87}, !- Handle
  SecondarySchool|Cafeteria|DOE Ref 1980-2004|ASHRAE 169-2006-5A, !- Name
  {fe59da52-fdcd-4a02-ac55-a9236544ed6b}, !- Default Construction Set Name
  {f53834a5-2f6b-486a-8a8e-84c59d8a6aca}, !- Default Schedule Set Name
  {c58b8d59-9296-4394-b48b-357b905ea0ce}, !- Group Rendering Name
  {2dd9da62-f90c-4faa-9675-7a236ea5b94a}, !- Design Specification Outdoor Air Object Name
  SecondarySchool,                        !- Standards Building Type
  Cafeteria;                              !- Standards Space Type

OS:Rendering:Color,
  {c58b8d59-9296-4394-b48b-357b905ea0ce}, !- Handle
  Rendering Color 6,                      !- Name
  31,                                     !- Rendering Red Value
  169,                                    !- Rendering Green Value
  34;                                     !- Rendering Blue Value

OS:SpaceType,
  {fd49d456-2ebd-4c12-bfa9-c560a3b0cef2}, !- Handle
  SecondarySchool|Kitchen|DOE Ref 1980-2004|ASHRAE 169-2006-5A, !- Name
  {fe59da52-fdcd-4a02-ac55-a9236544ed6b}, !- Default Construction Set Name
  {f0163c9d-6e86-4c13-84e9-dc25b3f8382f}, !- Default Schedule Set Name
  {c00e5127-72d2-44ad-8d43-e865951f5bd6}, !- Group Rendering Name
  {ecd11ffb-e49b-4a0c-b3d9-4e76490b76d5}, !- Design Specification Outdoor Air Object Name
  SecondarySchool,                        !- Standards Building Type
  Kitchen;                                !- Standards Space Type

OS:Rendering:Color,
  {c00e5127-72d2-44ad-8d43-e865951f5bd6}, !- Handle
  Rendering Color 7,                      !- Name
  78,                                     !- Rendering Red Value
  222,                                    !- Rendering Green Value
  133;                                    !- Rendering Blue Value

OS:Schedule:Ruleset,
  {bd9a404b-0f4c-4236-8818-3112a2135f76}, !- Handle
  0800|1600|SecondarySchool|default|hoo,  !- Name
  {cce9dce6-5b78-4c1d-827c-b3761fb4d9d5}, !- Schedule Type Limits Name
  {57d4e242-f0c8-4363-a5fb-0806fe2a935d}, !- Default Day Schedule Name
  {88a8910c-ca20-46cb-a2bb-5ca0af8e1b7e}, !- Summer Design Day Schedule Name
  {64fd13ad-0f1d-4110-82b4-b1dc6dcd4828}; !- Winter Design Day Schedule Name

OS:Schedule:Day,
  {57d4e242-f0c8-4363-a5fb-0806fe2a935d}, !- Handle
  0800|1600|SecondarySchool|default|hoo Schedule Week Day, !- Name
  {cce9dce6-5b78-4c1d-827c-b3761fb4d9d5}, !- Schedule Type Limits Name
  ,                                       !- Interpolate to Timestep
  8,                                      !- Hour 1
  0,                                      !- Minute 1
  0,                                      !- Value Until Time 1
  16,                                     !- Hour 2
  0,                                      !- Minute 2
  1,                                      !- Value Until Time 2
  24,                                     !- Hour 3
  0,                                      !- Minute 3
  0;                                      !- Value Until Time 3

OS:Schedule:Day,
  {986665ae-d788-434f-a8b5-a5e4b998d45e}, !- Handle
  Schedule Day 2,                         !- Name
  ,                                       !- Schedule Type Limits Name
  ,                                       !- Interpolate to Timestep
  24,                                     !- Hour 1
  0,                                      !- Minute 1
  0;                                      !- Value Until Time 1

OS:Schedule:Day,
  {64fd13ad-0f1d-4110-82b4-b1dc6dcd4828}, !- Handle
  0800|1600|SecondarySchool|default|hoo Winter Design Day, !- Name
  {cce9dce6-5b78-4c1d-827c-b3761fb4d9d5}, !- Schedule Type Limits Name
  ,                                       !- Interpolate to Timestep
  24,                                     !- Hour 1
  0,                                      !- Minute 1
  0;                                      !- Value Until Time 1

OS:Schedule:Day,
  {35847833-2a74-4cab-bde1-ffcd9c52956b}, !- Handle
  Schedule Day 3,                         !- Name
  ,                                       !- Schedule Type Limits Name
  ,                                       !- Interpolate to Timestep
  24,                                     !- Hour 1
  0,                                      !- Minute 1
  0;                                      !- Value Until Time 1

OS:Schedule:Day,
  {88a8910c-ca20-46cb-a2bb-5ca0af8e1b7e}, !- Handle
  0800|1600|SecondarySchool|default|hoo Summer Design Day, !- Name
  {cce9dce6-5b78-4c1d-827c-b3761fb4d9d5}, !- Schedule Type Limits Name
  ,                                       !- Interpolate to Timestep
  24,                                     !- Hour 1
  0,                                      !- Minute 1
  1;                                      !- Value Until Time 1

OS:DefaultScheduleSet,
  {62312a81-a6f6-465c-be56-3b7a14b553fc}, !- Handle
  Building Hours of Operation,            !- Name
  {bd9a404b-0f4c-4236-8818-3112a2135f76}, !- Hours of Operation Schedule Name
  ,                                       !- Number of People Schedule Name
  ,                                       !- People Activity Level Schedule Name
  ,                                       !- Lighting Schedule Name
  ,                                       !- Electric Equipment Schedule Name
  ,                                       !- Gas Equipment Schedule Name
  ,                                       !- Hot Water Equipment Schedule Name
  ,                                       !- Infiltration Schedule Name
  ,                                       !- Steam Equipment Schedule Name
  ;                                       !- Other Equipment Schedule Name

OS:ScheduleTypeLimits,
  {cce9dce6-5b78-4c1d-827c-b3761fb4d9d5}, !- Handle
  OnOff,                                  !- Name
  0,                                      !- Lower Limit Value {BasedOnField A4}
  1,                                      !- Upper Limit Value {BasedOnField A4}
  Discrete,                               !- Numeric Type
  Availability;                           !- Unit Type

OS:Schedule:Ruleset,
  {814861c0-4cb1-4411-8478-2f754a5f41a6}, !- Handle
  0800|1600|SecondarySchool|default|occ,  !- Name
  {21200f2d-b843-47ae-bf3c-20f3108ccb5b}, !- Schedule Type Limits Name
  {0a3f518c-21cf-4ea4-9a72-fa635564a679}, !- Default Day Schedule Name
  {eed7754c-773f-4adf-92dd-80274e69e43a}, !- Summer Design Day Schedule Name
  {f9ecdad5-a2de-4456-aa42-7dd3ea73f39c}; !- Winter Design Day Schedule Name

OS:ScheduleTypeLimits,
  {21200f2d-b843-47ae-bf3c-20f3108ccb5b}, !- Handle
  Occupancy Schedule Type Limits,         !- Name
  0,                                      !- Lower Limit Value {BasedOnField A4}
  1,                                      !- Upper Limit Value {BasedOnField A4}
  Continuous,                             !- Numeric Type
  Dimensionless;                          !- Unit Type

OS:Schedule:Day,
  {0a3f518c-21cf-4ea4-9a72-fa635564a679}, !- Handle
  0800|1600|SecondarySchool|default|occ |default, !- Name
  {21200f2d-b843-47ae-bf3c-20f3108ccb5b}, !- Schedule Type Limits Name
  ,                                       !- Interpolate to Timestep
  8,                                      !- Hour 1
  0,                                      !- Minute 1
  0,                                      !- Value Until Time 1
  16,                                     !- Hour 2
  0,                                      !- Minute 2
  0.7,                                    !- Value Until Time 2
  21,                                     !- Hour 3
  0,                                      !- Minute 3
  0.15,                                   !- Value Until Time 3
  24,                                     !- Hour 4
  0,                                      !- Minute 4
  0;                                      !- Value Until Time 4

OS:Schedule:Day,
  {eed7754c-773f-4adf-92dd-80274e69e43a}, !- Handle
  0800|1600|SecondarySchool|default|occ Summer Design Day, !- Name
  {21200f2d-b843-47ae-bf3c-20f3108ccb5b}, !- Schedule Type Limits Name
  ,                                       !- Interpolate to Timestep
  8,                                      !- Hour 1
  0,                                      !- Minute 1
  0,                                      !- Value Until Time 1
  16,                                     !- Hour 2
  0,                                      !- Minute 2
  1,                                      !- Value Until Time 2
  21,                                     !- Hour 3
  0,                                      !- Minute 3
  0.15,                                   !- Value Until Time 3
  24,                                     !- Hour 4
  0,                                      !- Minute 4
  0;                                      !- Value Until Time 4

OS:Schedule:Day,
  {f9ecdad5-a2de-4456-aa42-7dd3ea73f39c}, !- Handle
  0800|1600|SecondarySchool|default|occ Winter Design Day, !- Name
  {21200f2d-b843-47ae-bf3c-20f3108ccb5b}, !- Schedule Type Limits Name
  ,                                       !- Interpolate to Timestep
  24,                                     !- Hour 1
  0,                                      !- Minute 1
  0;                                      !- Value Until Time 1

OS:Schedule:Rule,
  {15b52b73-523b-4cef-91ea-d8570bbc04a8}, !- Handle
  0800|1600|SecondarySchool|default|occ |1/1-6/30|Sat/Sun Rule, !- Name
  {814861c0-4cb1-4411-8478-2f754a5f41a6}, !- Schedule Ruleset Name
  0,                                      !- Rule Order
  {7a1b0622-73b0-4efe-80ae-56c9ce6266d1}, !- Day Schedule Name
  Yes,                                    !- Apply Sunday
  ,                                       !- Apply Monday
  ,                                       !- Apply Tuesday
  ,                                       !- Apply Wednesday
  ,                                       !- Apply Thursday
  ,                                       !- Apply Friday
  Yes,                                    !- Apply Saturday
  ,                                       !- Apply Holiday
  DateRange,                              !- Date Specification Type
  1,                                      !- Start Month
  1,                                      !- Start Day
  6,                                      !- End Month
  30;                                     !- End Day

OS:Schedule:Day,
  {7a1b0622-73b0-4efe-80ae-56c9ce6266d1}, !- Handle
  0800|1600|SecondarySchool|default|occ |1/1-6/30|Sat/Sun, !- Name
  {21200f2d-b843-47ae-bf3c-20f3108ccb5b}, !- Schedule Type Limits Name
  ,                                       !- Interpolate to Timestep
  24,                                     !- Hour 1
  0,                                      !- Minute 1
  0;                                      !- Value Until Time 1

OS:Schedule:Rule,
  {072af22f-97cb-4f17-9b40-6c3cf1e1954b}, !- Handle
  0800|1600|SecondarySchool|default|occ |7/1-9/1|Mon/Tue/Wed/Thu/Fri/Sat/Sun Rule, !- Name
  {814861c0-4cb1-4411-8478-2f754a5f41a6}, !- Schedule Ruleset Name
  1,                                      !- Rule Order
  {ee6d6e9b-d62c-4511-924d-55908903be5a}, !- Day Schedule Name
  Yes,                                    !- Apply Sunday
  Yes,                                    !- Apply Monday
  Yes,                                    !- Apply Tuesday
  Yes,                                    !- Apply Wednesday
  Yes,                                    !- Apply Thursday
  Yes,                                    !- Apply Friday
  Yes,                                    !- Apply Saturday
  ,                                       !- Apply Holiday
  DateRange,                              !- Date Specification Type
  7,                                      !- Start Month
  1,                                      !- Start Day
  9,                                      !- End Month
  1;                                      !- End Day

OS:Schedule:Day,
  {ee6d6e9b-d62c-4511-924d-55908903be5a}, !- Handle
  0800|1600|SecondarySchool|default|occ |7/1-9/1|Mon/Tue/Wed/Thu/Fri/Sat/Sun, !- Name
  {21200f2d-b843-47ae-bf3c-20f3108ccb5b}, !- Schedule Type Limits Name
  ,                                       !- Interpolate to Timestep
  8,                                      !- Hour 1
  0,                                      !- Minute 1
  0,                                      !- Value Until Time 1
  21,                                     !- Hour 2
  0,                                      !- Minute 2
  0.15,                                   !- Value Until Time 2
  24,                                     !- Hour 3
  0,                                      !- Minute 3
  0;                                      !- Value Until Time 3

OS:Schedule:Rule,
  {b7a825ee-9d30-44ea-86b7-cd48f584e068}, !- Handle
  0800|1600|SecondarySchool|default|occ |7/1-9/1|Sat/Sun Rule, !- Name
  {814861c0-4cb1-4411-8478-2f754a5f41a6}, !- Schedule Ruleset Name
  2,                                      !- Rule Order
  {d64e551d-f731-45a1-9cc8-b2fd4bcc5de5}, !- Day Schedule Name
  Yes,                                    !- Apply Sunday
  ,                                       !- Apply Monday
  ,                                       !- Apply Tuesday
  ,                                       !- Apply Wednesday
  ,                                       !- Apply Thursday
  ,                                       !- Apply Friday
  Yes,                                    !- Apply Saturday
  ,                                       !- Apply Holiday
  DateRange,                              !- Date Specification Type
  7,                                      !- Start Month
  1,                                      !- Start Day
  9,                                      !- End Month
  1;                                      !- End Day

OS:Schedule:Day,
  {d64e551d-f731-45a1-9cc8-b2fd4bcc5de5}, !- Handle
  0800|1600|SecondarySchool|default|occ |7/1-9/1|Sat/Sun, !- Name
  {21200f2d-b843-47ae-bf3c-20f3108ccb5b}, !- Schedule Type Limits Name
  ,                                       !- Interpolate to Timestep
  24,                                     !- Hour 1
  0,                                      !- Minute 1
  0;                                      !- Value Until Time 1

OS:Schedule:Rule,
  {d92a2f1e-116f-460a-ba7a-80ad3394cf7d}, !- Handle
  0800|1600|SecondarySchool|default|occ |9/1-12/31|Mon/Tue/Wed/Thu/Fri/Sat/Sun Rule, !- Name
  {814861c0-4cb1-4411-8478-2f754a5f41a6}, !- Schedule Ruleset Name
  3,                                      !- Rule Order
  {f097f23d-f29e-4099-8b86-b28975c6cc65}, !- Day Schedule Name
  Yes,                                    !- Apply Sunday
  Yes,                                    !- Apply Monday
  Yes,                                    !- Apply Tuesday
  Yes,                                    !- Apply Wednesday
  Yes,                                    !- Apply Thursday
  Yes,                                    !- Apply Friday
  Yes,                                    !- Apply Saturday
  ,                                       !- Apply Holiday
  DateRange,                              !- Date Specification Type
  9,                                      !- Start Month
  1,                                      !- Start Day
  12,                                     !- End Month
  31;                                     !- End Day

OS:Schedule:Day,
  {f097f23d-f29e-4099-8b86-b28975c6cc65}, !- Handle
  0800|1600|SecondarySchool|default|occ |9/1-12/31|Mon/Tue/Wed/Thu/Fri/Sat/Sun, !- Name
  {21200f2d-b843-47ae-bf3c-20f3108ccb5b}, !- Schedule Type Limits Name
  ,                                       !- Interpolate to Timestep
  8,                                      !- Hour 1
  0,                                      !- Minute 1
  0,                                      !- Value Until Time 1
  16,                                     !- Hour 2
  0,                                      !- Minute 2
  0.7,                                    !- Value Until Time 2
  21,                                     !- Hour 3
  0,                                      !- Minute 3
  0.15,                                   !- Value Until Time 3
  24,                                     !- Hour 4
  0,                                      !- Minute 4
  0;                                      !- Value Until Time 4

OS:Schedule:Rule,
  {c1663759-6408-4970-b6f2-1388524af2c5}, !- Handle
  0800|1600|SecondarySchool|default|occ |9/1-12/31|Sat/Sun Rule, !- Name
  {814861c0-4cb1-4411-8478-2f754a5f41a6}, !- Schedule Ruleset Name
  4,                                      !- Rule Order
  {3375669b-47b1-4e83-b81e-e7732d200315}, !- Day Schedule Name
  Yes,                                    !- Apply Sunday
  ,                                       !- Apply Monday
  ,                                       !- Apply Tuesday
  ,                                       !- Apply Wednesday
  ,                                       !- Apply Thursday
  ,                                       !- Apply Friday
  Yes,                                    !- Apply Saturday
  ,                                       !- Apply Holiday
  DateRange,                              !- Date Specification Type
  9,                                      !- Start Month
  1,                                      !- Start Day
  12,                                     !- End Month
  31;                                     !- End Day

OS:Schedule:Day,
  {3375669b-47b1-4e83-b81e-e7732d200315}, !- Handle
  0800|1600|SecondarySchool|default|occ |9/1-12/31|Sat/Sun, !- Name
  {21200f2d-b843-47ae-bf3c-20f3108ccb5b}, !- Schedule Type Limits Name
  ,                                       !- Interpolate to Timestep
  24,                                     !- Hour 1
  0,                                      !- Minute 1
  0;                                      !- Value Until Time 1

OS:Schedule:Ruleset,
  {c16ad620-62b2-41d1-ab2b-36320640acdc}, !- Handle
  0800|1600|SecondarySchool|default|activity, !- Name
  {5030f335-886d-4b6a-b060-b915936b50de}, !- Schedule Type Limits Name
  {4d874dbc-ed79-4398-84ab-159cbec0f52d}, !- Default Day Schedule Name