
OS:Version,
  {893fc099-ed31-45e5-a821-fc53d45ef185}, !- Handle
  1.5.5;                                  !- Version Identifier

OS:ClimateZones,
  {135edfab-17e7-40db-a436-27d385a8cd6d}, !- Handle
  ,                                       !- Active Institution
  ,                                       !- Active Year
  ASHRAE,                                 !- Climate Zone Institution Name 1
  ANSI/ASHRAE Standard 169,               !- Climate Zone Document Name 1
  2006,                                   !- Climate Zone Document Year 1
  ,                                       !- Climate Zone Value 1
  CEC,                                    !- Climate Zone Institution Name 2
  California Climate Zone Descriptions,   !- Climate Zone Document Name 2
  1995,                                   !- Climate Zone Document Year 2
  ;                                       !- Climate Zone Value 2

OS:YearDescription,
  {513d8dda-86cb-442a-b01c-1f7f0e0ac70e}; !- Handle

OS:RadianceParameters,
  {270a96f1-3c86-4b75-a667-cdf22790e2c8}, !- Handle
  1,                                      !- Accumulated Rays per Record
  0,                                      !- Direct Threshold
  1,                                      !- Direct Certainty
  1,                                      !- Direct Jitter
  1,                                      !- Direct Pretest
  6,                                      !- Ambient Bounces VMX
  2,                                      !- Ambient Bounces DMX
  4050,                                   !- Ambient Divisions VMX
  512,                                    !- Ambient Divisions DMX
  256,                                    !- Ambient Supersamples
  0.001,                                  !- Limit Weight VMX
  0.001,                                  !- Limit Weight DMX
  500,                                    !- Klems Sampling Density
  146;                                    !- Sky Discretization Resolution

OS:SimulationControl,
  {2c487a4c-bac9-4ac5-b669-1e49d9da7c2b}, !- Handle
  ,                                       !- Do Zone Sizing Calculation
  ,                                       !- Do System Sizing Calculation
  ,                                       !- Do Plant Sizing Calculation
  No,                                     !- Run Simulation for Sizing Periods
  ,                                       !- Run Simulation for Weather File Run Periods
  0.04,                                   !- Loads Convergence Tolerance Value
  ,                                       !- Temperature Convergence Tolerance Value {deltaC}
  ,                                       !- Solar Distribution
  ,                                       !- Maximum Number of Warmup Days
  2;                                      !- Minimum Number of Warmup Days

OS:Sizing:Parameters,
  {dde5af6f-7923-4600-a28a-7556673a0266}, !- Handle
  1.25,                                   !- Heating Sizing Factor
  1.15;                                   !- Cooling Sizing Factor

OS:ProgramControl,
  {05027a99-f2b3-4aeb-afc6-1425fbb4371d}; !- Handle

OS:Timestep,
  {4ebc9f1e-4707-402e-9844-67eb1ffbd522}, !- Handle
  2;                                      !- Number of Timesteps per Hour

OS:OutputControl:ReportingTolerances,
  {65797aa2-06a9-45fe-b69d-bc6e060399d3}; !- Handle

OS:ConvergenceLimits,
  {9fc11aba-8822-4f3d-970c-46391ba4040d}; !- Handle

OS:ShadowCalculation,
  {ca758bea-4416-4626-9bba-3d8795c79bd6}, !- Handle
  7,                                      !- Calculation Frequency
  15000;                                  !- Maximum Figures in Shadow Overlap Calculations

OS:SurfaceConvectionAlgorithm:Inside,
  {aaabfc36-718a-4ab0-b622-f186ebb45230}, !- Handle
  TARP;                                   !- Algorithm

OS:SurfaceConvectionAlgorithm:Outside,
  {9a0a9f6f-4bbd-4b12-a121-9492a1fcd7d6}, !- Handle
  DOE-2;                                  !- Algorithm

OS:HeatBalanceAlgorithm,
  {9d93e563-e1e0-46d7-9e39-d1c8aceb7212}, !- Handle
  ConductionTransferFunction,             !- Algorithm
  200;                                    !- Surface Temperature Upper Limit {F}

OS:ZoneAirHeatBalanceAlgorithm,
  {8520d93e-310f-4696-9bcd-36228bfdd743}, !- Handle
  AnalyticalSolution;                     !- Algorithm

OS:ZoneAirContaminantBalance,
  {eb5fc3ae-fb22-4160-8fcb-3e3b22b000d3}; !- Handle

OS:ZoneCapacitanceMultiplier:ResearchSpecial,
  {4020ce4f-5a7a-4849-8028-8305d7b751b1}, !- Handle
  ,                                       !- Temperature Capacity Multiplier
  ,                                       !- Humidity Capacity Multiplier
  ;                                       !- Carbon Dioxide Capacity Multiplier

OS:RunPeriod,
  {28df894d-6af9-4fb8-8f56-df1753344aa3}, !- Handle
  Run Period 1,                           !- Name
  1,                                      !- Begin Month
  1,                                      !- Begin Day of Month
  12,                                     !- End Month
  31,                                     !- End Day of Month
  ,                                       !- Use Weather File Holidays and Special Days
  ,                                       !- Use Weather File Daylight Saving Period
  ,                                       !- Apply Weekend Holiday Rule
  ,                                       !- Use Weather File Rain Indicators
  ,                                       !- Use Weather File Snow Indicators
  ;                                       !- Number of Times Runperiod to be Repeated

OS:Building,
  {bf305633-c5a1-4881-9edf-ca5e1a8e1274}, !- Handle
  Building 1,                             !- Name
  ,                                       !- Building Sector Type
  ,                                       !- North Axis {deg}
  ,                                       !- Nominal Floor to Floor Height {m}
  ,                                       !- Space Type Name
  ,                                       !- Default Construction Set Name
  {0412c65b-573f-4b5c-9f26-8c0df288881e}, !- Default Schedule Set Name
  ,                                       !- Standards Number of Stories
  ,                                       !- Standards Number of Above Ground Stories
  MidriseApartment;                       !- Standards Building Type

OS:LifeCycleCost:Parameters,
  {231cf8a0-f0e7-4251-a99f-11f0d464e661}, !- Handle
  FEMP,                                   !- Analysis Type
  ,                                       !- Discounting Convention
  ,                                       !- Inflation Approach
  ,                                       !- Real Discount Rate
  ,                                       !- Nominal Discount Rate
  ,                                       !- Inflation
  ,                                       !- Base Date Month
  ,                                       !- Base Date Year
  ,                                       !- Service Date Month
  ,                                       !- Service Date Year
  ,                                       !- Length of Study Period in Years
  ,                                       !- Tax Rate
  ,                                       !- Depreciation Method
  Yes;                                    !- Use NIST Fuel Escalation Rates

OS:Facility,
  {3ba8e45b-b833-44eb-a723-ea6c3946dc96}; !- Handle

OS:SpaceType,
  {f38ba31e-a4fa-4ab0-ba12-9c79d6013224}, !- Handle
  MidriseApartment|Apartment|DOE Ref 1980-2004|ASHRAE 169-2006-5A, !- Name
  {6fc7afca-f2c3-41b3-aa20-5c50c61ffabd}, !- Default Construction Set Name
  {0c8e799b-e9d6-40a8-a3eb-46115154c159}, !- Default Schedule Set Name
  {2137beee-187e-41fc-9082-ce16d32a0b1d}, !- Group Rendering Name
  {d8364238-0721-4beb-9fcd-6655c466e665}, !- Design Specification Outdoor Air Object Name
  MidriseApartment,                       !- Standards Building Type
  Apartment;                              !- Standards Space Type

OS:Rendering:Color,
  {2137beee-187e-41fc-9082-ce16d32a0b1d}, !- Handle
  Rendering Color 1,                      !- Name
  78,                                     !- Rendering Red Value
  167,                                    !- Rendering Green Value
  222;                                    !- Rendering Blue Value

OS:Schedule:Ruleset,
  {d19c3aef-c8ca-47da-9a11-b5efe09ab716}, !- Handle
  0800|1800|MidriseApartment|default|hoo, !- Name
  {de04b75f-8950-44ac-b2b3-7e220540e9f1}, !- Schedule Type Limits Name
  {544ec960-eb7a-4dfc-ad30-85762b7b456e}, !- Default Day Schedule Name
  {24ba3ad3-cdaa-4923-8f74-f04e8cea50df}, !- Summer Design Day Schedule Name
  {cf652548-524d-46a6-b225-039e34533f1e}; !- Winter Design Day Schedule Name

OS:Schedule:Day,
  {544ec960-eb7a-4dfc-ad30-85762b7b456e}, !- Handle
  0800|1800|MidriseApartment|default|hoo Schedule Week Day, !- Name
  {de04b75f-8950-44ac-b2b3-7e220540e9f1}, !- Schedule Type Limits Name
  ,                                       !- Interpolate to Timestep
  8,                                      !- Hour 1
  0,                                      !- Minute 1
  0,                                      !- Value Until Time 1
  18,                                     !- Hour 2
  0,                                      !- Minute 2
  1,                                      !- Value Until Time 2
  24,                                     !- Hour 3
  0,                                      !- Minute 3
  0;                                      !- Value Until Time 3

OS:Schedule:Day,
  {f5d884e5-c9cc-45b2-841c-51c74d5c8673}, !- Handle
  Schedule Day 2,                         !- Name
  ,                                       !- Schedule Type Limits Name
  ,                                       !- Interpolate to Timestep
  24,                                     !- Hour 1
  0,                                      !- Minute 1
  0;                                      !- Value Until Time 1

OS:Schedule:Day,
  {cf652548-524d-46a6-b225-039e34533f1e}, !- Handle
  0800|1800|MidriseApartment|default|hoo Winter Design Day, !- Name
  {de04b75f-8950-44ac-b2b3-7e220540e9f1}, !- Schedule Type Limits Name
  ,                                       !- Interpolate to Timestep
  24,                                     !- Hour 1
  0,                                      !- Minute 1
  0;                                      !- Value Until Time 1

OS:Schedule:Day,
  {55e47df8-0e73-4923-a4ac-23443ba4c4df}, !- Handle
  Schedule Day 3,                         !- Name
  ,                                       !- Schedule Type Limits Name
  ,                                       !- Interpolate to Timestep
  24,                                     !- Hour 1
  0,                                      !- Minute 1
  0;                                      !- Value Until Time 1

OS:Schedule:Day,
  {24ba3ad3-cdaa-4923-8f74-f04e8cea50df}, !- Handle
  0800|1800|MidriseApartment|default|hoo Summer Design Day, !- Name
  {de04b75f-8950-44ac-b2b3-7e220540e9f1}, !- Schedule Type Limits Name
  ,                                       !- Interpolate to Timestep
  24,                                     !- Hour 1
  0,                                      !- Minute 1
  1;                                      !- Value Until Time 1

OS:DefaultScheduleSet,
  {0412c65b-573f-4b5c-9f26-8c0df288881e}, !- Handle
  Building Hours of Operation,            !- Name
  {d19c3aef-c8ca-47da-9a11-b5efe09ab716}, !- Hours of Operation Schedule Name
  ,                                       !- Number of People Schedule Name
  ,                                       !- People Activity Level Schedule Name
  ,                                       !- Lighting Schedule Name
  ,                                       !- Electric Equipment Schedule Name
  ,                                       !- Gas Equipment Schedule Name
  ,                                       !- Hot Water Equipment Schedule Name
  ,                                       !- Infiltration Schedule Name
  ,                                       !- Steam Equipment Schedule Name
  ;                                       !- Other Equipment Schedule Name

OS:ScheduleTypeLimits,
  {de04b75f-8950-44ac-b2b3-7e220540e9f1}, !- Handle
  OnOff,                                  !- Name
  0,                                      !- Lower Limit Value {BasedOnField A4}
  1,                                      !- Upper Limit Value {BasedOnField A4}
  Discrete,                               !- Numeric Type
  Availability;                           !- Unit Type

OS:Schedule:Ruleset,
  {e9440cb1-a458-4836-a018-283eaef78fde}, !- Handle
  0800|1800|MidriseApartment|xApartment|lighting, !- Name
  {97307d5f-283e-48fc-99e9-f80ddbfb0257}, !- Schedule Type Limits Name
  {937c3f4f-c091-4fc2-b8a0-6cd78f0d1977}, !- Default Day Schedule Name
  {ecd99c3e-2f6d-43b1-97e2-3bd821b1ae11}, !- Summer Design Day Schedule Name
  {e35cbd38-2cc5-426c-85c7-faecbe77590d}; !- Winter Design Day Schedule Name

OS:ScheduleTypeLimits,
  {97307d5f-283e-48fc-99e9-f80ddbfb0257}, !- Handle
  Lights Schedule Type Limits,            !- Name
  0,                                      !- Lower Limit Value {BasedOnField A4}
  1,                                      !- Upper Limit Value {BasedOnField A4}
  Continuous,                             !- Numeric Type
  Dimensionless;                          !- Unit Type

OS:Schedule:Day,
  {937c3f4f-c091-4fc2-b8a0-6cd78f0d1977}, !- Handle
  0800|1800|MidriseApartment|xApartment|lighting |default, !- Name
  {97307d5f-283e-48fc-99e9-f80ddbfb0257}, !- Schedule Type Limits Name
  ,                                       !- Interpolate to Timestep
  4,                                      !- Hour 1
  0,                                      !- Minute 1
  0.07,                                   !- Value Until Time 1
  5,                                      !- Hour 2
  0,                                      !- Minute 2
  0.19,                                   !- Value Until Time 2
  6,                                      !- Hour 3
  0,                                      !- Minute 3
  0.39,                                   !- Value Until Time 3
  7,                                      !- Hour 4
  0,                                      !- Minute 4
  0.44,                                   !- Value Until Time 4
  8,                                      !- Hour 5
  0,                                      !- Minute 5
  0.39,                                   !- Value Until Time 5
  9,                                      !- Hour 6
  0,                                      !- Minute 6
  0.17,                                   !- Value Until Time 6
  15,                                     !- Hour 7
  0,                                      !- Minute 7
  0.12,                                   !- Value Until Time 7
  16,                                     !- Hour 8
  0,                                      !- Minute 8
  0.21,                                   !- Value Until Time 8
  17,                                     !- Hour 9
  0,                                      !- Minute 9
  0.44,                                   !- Value Until Time 9
  18,                                     !- Hour 10
  0,                                      !- Minute 10
  0.62,                                   !- Value Until Time 10
  19,                                     !- Hour 11
  0,                                      !- Minute 11
  0.83,                                   !- Value Until Time 11
  20,                                     !- Hour 12
  0,                                      !- Minute 12
  0.99,                                   !- Value Until Time 12
  21,                                     !- Hour 13
  0,                                      !- Minute 13
  1,                                      !- Value Until Time 13
  22,                                     !- Hour 14
  0,                                      !- Minute 14
  0.69,                                   !- Value Until Time 14
  23,                                     !- Hour 15
  0,                                      !- Minute 15
  0.38,                                   !- Value Until Time 15
  24,                                     !- Hour 16
  0,                                      !- Minute 16
  0.16;                                   !- Value Until Time 16

OS:Schedule:Day,
  {ecd99c3e-2f6d-43b1-97e2-3bd821b1ae11}, !- Handle
  0800|1800|MidriseApartment|xApartment|lighting Summer Design Day, !- Name
  {97307d5f-283e-48fc-99e9-f80ddbfb0257}, !- Schedule Type Limits Name
  ,                                       !- Interpolate to Timestep
  4,                                      !- Hour 1
  0,                                      !- Minute 1
  0.07,                                   !- Value Until Time 1
  5,                                      !- Hour 2
  0,                                      !- Minute 2
  0.19,                                   !- Value Until Time 2
  8,                                      !- Hour 3
  0,                                      !- Minute 3
  1,                                      !- Value Until Time 3
  9,                                      !- Hour 4
  0,                                      !- Minute 4
  0.17,                                   !- Value Until Time 4
  15,                                     !- Hour 5
  0,                                      !- Minute 5
  0.12,                                   !- Value Until Time 5
  16,                                     !- Hour 6
  0,                                      !- Minute 6
  0.21,                                   !- Value Until Time 6
  23,                                     !- Hour 7
  0,                                      !- Minute 7
  1,                                      !- Value Until Time 7
  24,                                     !- Hour 8
  0,                                      !- Minute 8
  0.16;                                   !- Value Until Time 8

OS:Schedule:Day,
  {e35cbd38-2cc5-426c-85c7-faecbe77590d}, !- Handle
  0800|1800|MidriseApartment|xApartment|lighting Winter Design Day, !- Name
  {97307d5f-283e-48fc-99e9-f80ddbfb0257}, !- Schedule Type Limits Name
  ,                                       !- Interpolate to Timestep
  24,                                     !- Hour 1
  0,                                      !- Minute 1
  0.07;                                   !- Value Until Time 1

OS:Schedule:Ruleset,
  {2a458ca0-2b83-4262-87ee-b19a9d1109da}, !- Handle
  0800|1800|MidriseApartment|default|clg_setpoint, !- Name
  {9040f3e7-ebc5-46f5-9e35-d696d1fdff5d}, !- Schedule Type Limits Name
  {2dd9f356-7aa2-483c-b12e-5fb772c80377}, !- Default Day Schedule Name
  {4693b310-f021-4faf-862c-9655643d671d}, !- Summer Design Day Schedule Name
  {eb14c1e7-46fa-4d6d-b749-18f1ce689951}; !- Winter Design Day Schedule Name

OS:ScheduleTypeLimits,
  {9040f3e7-ebc5-46f5-9e35-d696d1fdff5d}, !- Handle
  Thermostat Cooling Setpoint Schedule Type Limits, !- Name
  0,                                      !- Lower Limit Value {BasedOnField A4}
  100,                                    !- Upper Limit Value {BasedOnField A4}
  Continuous,                             !- Numeric Type
  Temperature;                            !- Unit Type

OS:Schedule:Day,
  {2dd9f356-7aa2-483c-b12e-5fb772c80377}, !- Handle
  0800|1800|MidriseApartment|default|clg_setpoint |default, !- Name
  {9040f3e7-ebc5-46f5-9e35-d696d1fdff5d}, !- Schedule Type Limits Name
  ,                                       !- Interpolate to Timestep
  24,                                     !- Hour 1
  0,                                      !- Minute 1
  23.8888888888889;                       !- Value Until Time 1

OS:Schedule:Day,
  {4693b310-f021-4faf-862c-9655643d671d}, !- Handle
  0800|1800|MidriseApartment|default|clg_setpoint Summer Design Day, !- Name
  {9040f3e7-ebc5-46f5-9e35-d696d1fdff5d}, !- Schedule Type Limits Name
  ,                                       !- Interpolate to Timestep
  24,                                     !- Hour 1
  0,                                      !- Minute 1
  23.8888888888889;                       !- Value Until Time 1

OS:Schedule:Day,
  {eb14c1e7-46fa-4d6d-b749-18f1ce689951}, !- Handle
  0800|1800|MidriseApartment|default|clg_setpoint Winter Design Day, !- Name
  {9040f3e7-ebc5-46f5-9e35-d696d1fdff5d}, !- Schedule Type Limits Name
  ,                                       !- Interpolate to Timestep
  24,                                     !- Hour 1
  0,                                      !- Minute 1
  23.8888888888889;                       !- Value Until Time 1

OS:Schedule:Ruleset,
  {1282ce90-9d59-4aac-be57-605d3c6266a2}, !- Handle
  0800|1800|MidriseApartment|default|work_eff, !- Name
  {441ea8a2-51e2-4fdf-89cb-79ae945d298c}, !- Schedule Type Limits Name
  {4235b6d6-1220-4f6a-9483-f67455cf6535}, !- Default Day Schedule Name
  {03c2e08d-b279-4ec5-ab4d-bab71abe2d54}, !- Summer Design Day Schedule Name
  {816b3bfa-6f56-4b7f-bfeb-c09434d85158}; !- Winter Design Day Schedule Name

OS:ScheduleTypeLimits,
  {441ea8a2-51e2-4fdf-89cb-79ae945d298c}, !- Handle
  Fraction Schedule Type Limits,          !- Name
  0,                                      !- Lower Limit Value {BasedOnField A4}
  1,                                      !- Upper Limit Value {BasedOnField A4}
  Continuous,                             !- Numeric Type
  Dimensionless;                          !- Unit Type

OS:Schedule:Day,
  {4235b6d6-1220-4f6a-9483-f67455cf6535}, !- Handle
  0800|1800|MidriseApartment|default|work_eff |default, !- Name
  {441ea8a2-51e2-4fdf-89cb-79ae945d298c}, !- Schedule Type Limits Name
  ,                                       !- Interpolate to Timestep
  24,                                     !- Hour 1
  0,                                      !- Minute 1
  0;                                      !- Value Until Time 1

OS:Schedule:Day,
  {03c2e08d-b279-4ec5-ab4d-bab71abe2d54}, !- Handle
  0800|1800|MidriseApartment|default|work_eff Summer Design Day, !- Name
  {441ea8a2-51e2-4fdf-89cb-79ae945d298c}, !- Schedule Type Limits Name
  ,                                       !- Interpolate to Timestep
  24,                                     !- Hour 1
  0,                                      !- Minute 1
  0;                                      !- Value Until Time 1

OS:Schedule:Day,
  {816b3bfa-6f56-4b7f-bfeb-c09434d85158}, !- Handle
  0800|1800|MidriseApartment|default|work_eff Winter Design Day, !- Name
  {441ea8a2-51e2-4fdf-89cb-79ae945d298c}, !- Schedule Type Limits Name
  ,                                       !- Interpolate to Timestep
  24,                                     !- Hour 1
  0,                                      !- Minute 1
  0;                                      !- Value Until Time 1

OS:Schedule:Ruleset,
  {d21cd748-9f95-4c88-ba11-9a198817270c}, !- Handle
  0800|1800|MidriseApartment|default|rh,  !- Name
  {71a181bd-77b7-46e2-81bb-5b7f23d101e4}, !- Schedule Type Limits Name
  {c651b26c-9196-4b1c-810c-613aef1005ae}, !- Default Day Schedule Name
  {1feea793-f788-4922-aae7-27ee29a52310}, !- Summer Design Day Schedule Name
  {93d38fbc-5df9-4889-b3b5-6b1ae998e9e8}; !- Winter Design Day Schedule Name

OS:ScheduleTypeLimits,
  {71a181bd-77b7-46e2-81bb-5b7f23d101e4}, !- Handle
  Dimensionless Schedule Type Limits,     !- Name
  ,                                       !- Lower Limit Value {BasedOnField A4}
  ,                                       !- Upper Limit Value {BasedOnField A4}
  Continuous,                             !- Numeric Type
  Dimensionless;                          !- Unit Type

OS:Schedule:Day,
  {c651b26c-9196-4b1c-810c-613aef1005ae}, !- Handle
  0800|1800|MidriseApartment|default|rh |default, !- Name
  {71a181bd-77b7-46e2-81bb-5b7f23d101e4}, !- Schedule Type Limits Name
  ,                                       !- Interpolate to Timestep
  24,                                     !- Hour 1
  0,                                      !- Minute 1
  50;                                     !- Value Until Time 1

OS:Schedule:Day,
  {1feea793-f788-4922-aae7-27ee29a52310}, !- Handle
  0800|1800|MidriseApartment|default|rh Summer Design Day, !- Name
  {71a181bd-77b7-46e2-81bb-5b7f23d101e4}, !- Schedule Type Limits Name
  ,                                       !- Interpolate to Timestep
  24,                                     !- Hour 1
  0,                                      !- Minute 1
  50;                                     !- Value Until Time 1

OS:Schedule:Day,
  {93d38fbc-5df9-4889-b3b5-6b1ae998e9e8}, !- Handle
  0800|1800|MidriseApartment|default|rh Winter Design Day, !- Name
  {71a181bd-77b7-46e2-81bb-5b7f23d101e4}, !- Schedule Type Limits Name
  ,                                       !- Interpolate to Timestep
  24,                                     !- Hour 1
  0,                                      !- Minute 1
  50;                                     !- Value Until Time 1

OS:Schedule:Ruleset,
  {20d84420-2e45-410c-b0d9-768cf875d097}, !- Handle
  0800|1800|MidriseApartment|Office|lighting, !- Name
  {97307d5f-283e-48fc-99e9-f80ddbfb0257}, !- Schedule Type Limits Name
  {e160225b-45fc-4e41-8b67-d7a03ca47b21}, !- Default Day Schedule Name
  {7abfb0ce-be9e-4ae3-ba00-93fb1cc2d712}, !- Summer Design Day Schedule Name
  {6996a2ed-ee09-4cb2-a269-23930a07b0b8}; !- Winter Design Day Schedule Name

OS:Schedule:Day,
  {e160225b-45fc-4e41-8b67-d7a03ca47b21}, !- Handle
  0800|1800|MidriseApartment|Office|lighting |default, !- Name
  {97307d5f-283e-48fc-99e9-f80ddbfb0257}, !- Schedule Type Limits Name
  ,                                       !- Interpolate to Timestep
  8,                                      !- Hour 1
  0,                                      !- Minute 1
  0.18,                                   !- Value Until Time 1
  12,                                     !- Hour 2
  30,                                     !- Minute 2
  0.9,                                    !- Value Until Time 2
  13,                                     !- Hour 3
  30,                                     !- Minute 3
  0.8,                                    !- Value Until Time 3
  18,                                     !- Hour 4
  0,                                      !- Minute 4
  0.9,                                    !- Value Until Time 4
  24,                                     !- Hour 5
  0,                                      !- Minute 5
  0.18;                                   !- Value Until Time 5

OS:Schedule:Day,
  {7abfb0ce-be9e-4ae3-ba00-93fb1cc2d712}, !- Handle
  0800|1800|MidriseApartment|Office|lighting Summer Design Day, !- Name
  {97307d5f-283e-48fc-99e9-f80ddbfb0257}, !- Schedule Type Limits Name
  ,                                       !- Interpolate to Timestep
  8,                                      !- Hour 1
  0,                                      !- Minute 1
  0.18,                                   !- Value Until Time 1
  18,                                     !- Hour 2
  0,                                      !- Minute 2
  1,                                      !- Value Until Time 2
  24,                                     !- Hour 3
  0,                                      !- Minute 3
  0.18;                                   !- Value Until Time 3

OS:Schedule:Day,
  {6996a2ed-ee09-4cb2-a269-23930a07b0b8}, !- Handle
  0800|1800|MidriseApartment|Office|lighting Winter Design Day, !- Name
  {97307d5f-283e-48fc-99e9-f80ddbfb0257}, !- Schedule Type Limits Name
  ,                                       !- Interpolate to Timestep
  24,                                     !- Hour 1
  0,                                      !- Minute 1
  0.18;                                   !- Value Until Time 1

OS:Schedule:Ruleset,
  {fe1bdd96-2259-461b-82ad-98f32656e004}, !- Handle
  0800|1800|MidriseApartment|default|elevator, !- Name
  {4939cc80-ad75-48ff-a7e5-07925acdc53f}, !- Schedule Type Limits Name
  {89b3d99d-944d-4c38-90fe-23568c7fa9bf}, !- Default Day Schedule Name
  {93297d3e-1648-4992-a0dc-6277a912f447}, !- Summer Design Day Schedule Name
  {e4e95d56-e130-4da0-a607-d881ebcea6fb}; !- Winter Design Day Schedule Name

OS:ScheduleTypeLimits,
  {4939cc80-ad75-48ff-a7e5-07925acdc53f}, !- Handle
  Elevators Schedule Type Limits,         !- Name
  0,                                      !- Lower Limit Value {BasedOnField A4}
  1,                                      !- Upper Limit Value {BasedOnField A4}
  Continuous,                             !- Numeric Type
  Dimensionless;                          !- Unit Type

OS:Schedule:Day,
  {89b3d99d-944d-4c38-90fe-23568c7fa9bf}, !- Handle
  0800|1800|MidriseApartment|default|elevator |default, !- Name
  {4939cc80-ad75-48ff-a7e5-07925acdc53f}, !- Schedule Type Limits Name
  ,                                       !- Interpolate to Timestep
  4,                                      !- Hour 1
  0,                                      !- Minute 1
  0.05,                                   !- Value Until Time 1
  5,                                      !- Hour 2
  0,                                      !- Minute 2
  0.1,                                    !- Value Until Time 2
  6,                                      !- Hour 3
  0,                                      !- Minute 3
  0.2,                                    !- Value Until Time 3
  7,                                      !- Hour 4
  0,                                      !- Minute 4
  0.4,                                    !- Value Until Time 4
  9,                                      !- Hour 5
  0,                                      !- Minute 5
  0.5,                                    !- Value Until Time 5
  10,                                     !- Hour 6
  0,                                      !- Minute 6
  0.35,                                   !- Value Until Time 6
  16,                                     !- Hour 7
  0,                                      !- Minute 7