
OS:Version,
  {0442c00b-16a0-4d01-8f82-cc962dcace24}, !- Handle
  1.5.5;                                  !- Version Identifier

OS:ClimateZones,
  {135edfab-17e7-40db-a436-27d385a8cd6d}, !- Handle
  ,                                       !- Active Institution
  ,                                       !- Active Year
  ASHRAE,                                 !- Climate Zone Institution Name 1
  ANSI/ASHRAE Standard 169,               !- Climate Zone Document Name 1
  2006,                                   !- Climate Zone Document Year 1
  ,                                       !- Climate Zone Value 1
  CEC,                                    !- Climate Zone Institution Name 2
  California Climate Zone Descriptions,   !- Climate Zone Document Name 2
  1995,                                   !- Climate Zone Document Year 2
  ;                                       !- Climate Zone Value 2

OS:YearDescription,
  {513d8dda-86cb-442a-b01c-1f7f0e0ac70e}; !- Handle

OS:RadianceParameters,
  {270a96f1-3c86-4b75-a667-cdf22790e2c8}, !- Handle
  1,                                      !- Accumulated Rays per Record
  0,                                      !- Direct Threshold
  1,                                      !- Direct Certainty
  1,                                      !- Direct Jitter
  1,                                      !- Direct Pretest
  6,                                      !- Ambient Bounces VMX
  2,                                      !- Ambient Bounces DMX
  4050,                                   !- Ambient Divisions VMX
  512,                                    !- Ambient Divisions DMX
  256,                                    !- Ambient Supersamples
  0.001,                                  !- Limit Weight VMX
  0.001,                                  !- Limit Weight DMX
  500,                                    !- Klems Sampling Density
  146;                                    !- Sky Discretization Resolution

OS:SimulationControl,
  {2c487a4c-bac9-4ac5-b669-1e49d9da7c2b}, !- Handle
  ,                                       !- Do Zone Sizing Calculation
  ,                                       !- Do System Sizing Calculation
  ,                                       !- Do Plant Sizing Calculation
  No,                                     !- Run Simulation for Sizing Periods
  ,                                       !- Run Simulation for Weather File Run Periods
  0.04,                                   !- Loads Convergence Tolerance Value
  ,                                       !- Temperature Convergence Tolerance Value {deltaC}
  ,                                       !- Solar Distribution
  ,                                       !- Maximum Number of Warmup Days
  2;                                      !- Minimum Number of Warmup Days

OS:Sizing:Parameters,
  {dde5af6f-7923-4600-a28a-7556673a0266}, !- Handle
  1.25,                                   !- Heating Sizing Factor
  1.15;                                   !- Cooling Sizing Factor

OS:ProgramControl,
  {05027a99-f2b3-4aeb-afc6-1425fbb4371d}; !- Handle

OS:Timestep,
  {4ebc9f1e-4707-402e-9844-67eb1ffbd522}, !- Handle
  2;                                      !- Number of Timesteps per Hour

OS:OutputControl:ReportingTolerances,
  {65797aa2-06a9-45fe-b69d-bc6e060399d3}; !- Handle

OS:ConvergenceLimits,
  {9fc11aba-8822-4f3d-970c-46391ba4040d}; !- Handle

OS:ShadowCalculation,
  {ca758bea-4416-4626-9bba-3d8795c79bd6}, !- Handle
  7,                                      !- Calculation Frequency
  15000;                                  !- Maximum Figures in Shadow Overlap Calculations

OS:SurfaceConvectionAlgorithm:Inside,
  {aaabfc36-718a-4ab0-b622-f186ebb45230}, !- Handle
  TARP;                                   !- Algorithm

OS:SurfaceConvectionAlgorithm:Outside,
  {9a0a9f6f-4bbd-4b12-a121-9492a1fcd7d6}, !- Handle
  DOE-2;                                  !- Algorithm

OS:HeatBalanceAlgorithm,
  {9d93e563-e1e0-46d7-9e39-d1c8aceb7212}, !- Handle
  ConductionTransferFunction,             !- Algorithm
  200;                                    !- Surface Temperature Upper Limit {F}

OS:ZoneAirHeatBalanceAlgorithm,
  {8520d93e-310f-4696-9bcd-36228bfdd743}, !- Handle
  AnalyticalSolution;                     !- Algorithm

OS:ZoneAirContaminantBalance,
  {eb5fc3ae-fb22-4160-8fcb-3e3b22b000d3}; !- Handle

OS:ZoneCapacitanceMultiplier:ResearchSpecial,
  {4020ce4f-5a7a-4849-8028-8305d7b751b1}, !- Handle
  ,                                       !- Temperature Capacity Multiplier
  ,                                       !- Humidity Capacity Multiplier
  ;                                       !- Carbon Dioxide Capacity Multiplier

OS:RunPeriod,
  {28df894d-6af9-4fb8-8f56-df1753344aa3}, !- Handle
  Run Period 1,                           !- Name
  1,                                      !- Begin Month
  1,                                      !- Begin Day of Month
  12,                                     !- End Month
  31,                                     !- End Day of Month
  ,                                       !- Use Weather File Holidays and Special Days
  ,                                       !- Use Weather File Daylight Saving Period
  ,                                       !- Apply Weekend Holiday Rule
  ,                                       !- Use Weather File Rain Indicators
  ,                                       !- Use Weather File Snow Indicators
  ;                                       !- Number of Times Runperiod to be Repeated

OS:Building,
  {bf305633-c5a1-4881-9edf-ca5e1a8e1274}, !- Handle
  Building 1,                             !- Name
  ,                                       !- Building Sector Type
  ,                                       !- North Axis {deg}
  ,                                       !- Nominal Floor to Floor Height {m}
  ,                                       !- Space Type Name
  ,                                       !- Default Construction Set Name
  {abf00664-d320-4320-b0ec-6dfda5f408d2}, !- Default Schedule Set Name
  ,                                       !- Standards Number of Stories
  ,                                       !- Standards Number of Above Ground Stories
  MidriseApartment;                       !- Standards Building Type

OS:LifeCycleCost:Parameters,
  {231cf8a0-f0e7-4251-a99f-11f0d464e661}, !- Handle
  FEMP,                                   !- Analysis Type
  ,                                       !- Discounting Convention
  ,                                       !- Inflation Approach
  ,                                       !- Real Discount Rate
  ,                                       !- Nominal Discount Rate
  ,                                       !- Inflation
  ,                                       !- Base Date Month
  ,                                       !- Base Date Year
  ,                                       !- Service Date Month
  ,                                       !- Service Date Year
  ,                                       !- Length of Study Period in Years
  ,                                       !- Tax Rate
  ,                                       !- Depreciation Method
  Yes;                                    !- Use NIST Fuel Escalation Rates

OS:Facility,
  {3ba8e45b-b833-44eb-a723-ea6c3946dc96}; !- Handle

OS:SpaceType,
  {26ab54c8-da3a-4d70-80da-02bdf2ed4340}, !- Handle
  MidriseApartment|Apartment|DOE Ref Pre-1980|ASHRAE 169-2006-5A, !- Name
  {548a5d66-dfcd-4ba3-a026-d75a0f0fd61c}, !- Default Construction Set Name
  {e66bcfeb-ba80-434f-bc28-4ccd0048cace}, !- Default Schedule Set Name
  {2243af2b-d21e-4cd4-8997-af2fd4b76d90}, !- Group Rendering Name
  {4e55e012-d54e-4f47-b391-7a9a61016418}, !- Design Specification Outdoor Air Object Name
  MidriseApartment,                       !- Standards Building Type
  Apartment;                              !- Standards Space Type

OS:Rendering:Color,
  {2243af2b-d21e-4cd4-8997-af2fd4b76d90}, !- Handle
  Rendering Color 1,                      !- Name
  78,                                     !- Rendering Red Value
  167,                                    !- Rendering Green Value
  222;                                    !- Rendering Blue Value

OS:Schedule:Ruleset,
  {98c135c9-9cd4-49ed-960f-9776709b4c3b}, !- Handle
  0800|1800|MidriseApartment|default|hoo, !- Name
  {9e1cb824-618b-40eb-b705-7e53c58aabcc}, !- Schedule Type Limits Name
  {5318e32b-f1b2-4aa2-9267-4fafe4bb30e4}, !- Default Day Schedule Name
  {6bc5e84d-db6b-45ef-8e37-580f8c6a82c4}, !- Summer Design Day Schedule Name
  {8d4da66a-4484-4746-859f-e83ba7758840}; !- Winter Design Day Schedule Name

OS:Schedule:Day,
  {5318e32b-f1b2-4aa2-9267-4fafe4bb30e4}, !- Handle
  0800|1800|MidriseApartment|default|hoo Schedule Week Day, !- Name
  {9e1cb824-618b-40eb-b705-7e53c58aabcc}, !- Schedule Type Limits Name
  ,                                       !- Interpolate to Timestep
  8,                                      !- Hour 1
  0,                                      !- Minute 1
  0,                                      !- Value Until Time 1
  18,                                     !- Hour 2
  0,                                      !- Minute 2
  1,                                      !- Value Until Time 2
  24,                                     !- Hour 3
  0,                                      !- Minute 3
  0;                                      !- Value Until Time 3

OS:Schedule:Day,
  {2bf56ad0-15d7-425b-97b5-c389d8f5b2e7}, !- Handle
  Schedule Day 2,                         !- Name
  ,                                       !- Schedule Type Limits Name
  ,                                       !- Interpolate to Timestep
  24,                                     !- Hour 1
  0,                                      !- Minute 1
  0;                                      !- Value Until Time 1

OS:Schedule:Day,
  {8d4da66a-4484-4746-859f-e83ba7758840}, !- Handle
  0800|1800|MidriseApartment|default|hoo Winter Design Day, !- Name
  {9e1cb824-618b-40eb-b705-7e53c58aabcc}, !- Schedule Type Limits Name
  ,                                       !- Interpolate to Timestep
  24,                                     !- Hour 1
  0,                                      !- Minute 1
  0;                                      !- Value Until Time 1

OS:Schedule:Day,
  {36b41b0b-9bcf-445f-a539-e054da9543ff}, !- Handle
  Schedule Day 3,                         !- Name
  ,                                       !- Schedule Type Limits Name
  ,                                       !- Interpolate to Timestep
  24,                                     !- Hour 1
  0,                                      !- Minute 1
  0;                                      !- Value Until Time 1

OS:Schedule:Day,
  {6bc5e84d-db6b-45ef-8e37-580f8c6a82c4}, !- Handle
  0800|1800|MidriseApartment|default|hoo Summer Design Day, !- Name
  {9e1cb824-618b-40eb-b705-7e53c58aabcc}, !- Schedule Type Limits Name
  ,                                       !- Interpolate to Timestep
  24,                                     !- Hour 1
  0,                                      !- Minute 1
  1;                                      !- Value Until Time 1

OS:DefaultScheduleSet,
  {abf00664-d320-4320-b0ec-6dfda5f408d2}, !- Handle
  Building Hours of Operation,            !- Name
  {98c135c9-9cd4-49ed-960f-9776709b4c3b}, !- Hours of Operation Schedule Name
  ,                                       !- Number of People Schedule Name
  ,                                       !- People Activity Level Schedule Name
  ,                                       !- Lighting Schedule Name
  ,                                       !- Electric Equipment Schedule Name
  ,                                       !- Gas Equipment Schedule Name
  ,                                       !- Hot Water Equipment Schedule Name
  ,                                       !- Infiltration Schedule Name
  ,                                       !- Steam Equipment Schedule Name
  ;                                       !- Other Equipment Schedule Name

OS:ScheduleTypeLimits,
  {9e1cb824-618b-40eb-b705-7e53c58aabcc}, !- Handle
  OnOff,                                  !- Name
  0,                                      !- Lower Limit Value {BasedOnField A4}
  1,                                      !- Upper Limit Value {BasedOnField A4}
  Discrete,                               !- Numeric Type
  Availability;                           !- Unit Type

OS:Schedule:Ruleset,
  {312b1a4e-9a29-44f2-9618-4fb2d07e26c1}, !- Handle
  0800|1800|MidriseApartment|xApartment|lighting, !- Name
  {ab6f59a1-5c7a-46b3-be32-ffc3cfac064a}, !- Schedule Type Limits Name
  {20718a03-4676-4db9-9a44-660341f646b0}, !- Default Day Schedule Name
  {ce9044f0-8775-4511-8c74-a83f939935bd}, !- Summer Design Day Schedule Name
  {00308777-7e94-4c43-8863-739eba3c36ee}; !- Winter Design Day Schedule Name

OS:ScheduleTypeLimits,
  {ab6f59a1-5c7a-46b3-be32-ffc3cfac064a}, !- Handle
  Lights Schedule Type Limits,            !- Name
  0,                                      !- Lower Limit Value {BasedOnField A4}
  1,                                      !- Upper Limit Value {BasedOnField A4}
  Continuous,                             !- Numeric Type
  Dimensionless;                          !- Unit Type

OS:Schedule:Day,
  {20718a03-4676-4db9-9a44-660341f646b0}, !- Handle
  0800|1800|MidriseApartment|xApartment|lighting |default, !- Name
  {ab6f59a1-5c7a-46b3-be32-ffc3cfac064a}, !- Schedule Type Limits Name
  ,                                       !- Interpolate to Timestep
  4,                                      !- Hour 1
  0,                                      !- Minute 1
  0.07,                                   !- Value Until Time 1
  5,                                      !- Hour 2
  0,                                      !- Minute 2
  0.19,                                   !- Value Until Time 2
  6,                                      !- Hour 3
  0,                                      !- Minute 3
  0.39,                                   !- Value Until Time 3
  7,                                      !- Hour 4
  0,                                      !- Minute 4
  0.44,                                   !- Value Until Time 4
  8,                                      !- Hour 5
  0,                                      !- Minute 5
  0.39,                                   !- Value Until Time 5
  9,                                      !- Hour 6
  0,                                      !- Minute 6
  0.17,                                   !- Value Until Time 6
  15,                                     !- Hour 7
  0,                                      !- Minute 7
  0.12,                                   !- Value Until Time 7
  16,                                     !- Hour 8
  0,                                      !- Minute 8
  0.21,                                   !- Value Until Time 8
  17,                                     !- Hour 9
  0,                                      !- Minute 9
  0.44,                                   !- Value Until Time 9
  18,                                     !- Hour 10
  0,                                      !- Minute 10
  0.62,                                   !- Value Until Time 10
  19,                                     !- Hour 11
  0,                                      !- Minute 11
  0.83,                                   !- Value Until Time 11
  20,                                     !- Hour 12
  0,                                      !- Minute 12
  0.99,                                   !- Value Until Time 12
  21,                                     !- Hour 13
  0,                                      !- Minute 13
  1,                                      !- Value Until Time 13
  22,                                     !- Hour 14
  0,                                      !- Minute 14
  0.69,                                   !- Value Until Time 14
  23,                                     !- Hour 15
  0,                                      !- Minute 15
  0.38,                                   !- Value Until Time 15
  24,                                     !- Hour 16
  0,                                      !- Minute 16
  0.16;                                   !- Value Until Time 16

OS:Schedule:Day,
  {ce9044f0-8775-4511-8c74-a83f939935bd}, !- Handle
  0800|1800|MidriseApartment|xApartment|lighting Summer Design Day, !- Name
  {ab6f59a1-5c7a-46b3-be32-ffc3cfac064a}, !- Schedule Type Limits Name
  ,                                       !- Interpolate to Timestep
  4,                                      !- Hour 1
  0,                                      !- Minute 1
  0.07,                                   !- Value Until Time 1
  5,                                      !- Hour 2
  0,                                      !- Minute 2
  0.19,                                   !- Value Until Time 2
  8,                                      !- Hour 3
  0,                                      !- Minute 3
  1,                                      !- Value Until Time 3
  9,                                      !- Hour 4
  0,                                      !- Minute 4
  0.17,                                   !- Value Until Time 4
  15,                                     !- Hour 5
  0,                                      !- Minute 5
  0.12,                                   !- Value Until Time 5
  16,                                     !- Hour 6
  0,                                      !- Minute 6
  0.21,                                   !- Value Until Time 6
  23,                                     !- Hour 7
  0,                                      !- Minute 7
  1,                                      !- Value Until Time 7
  24,                                     !- Hour 8
  0,                                      !- Minute 8
  0.16;                                   !- Value Until Time 8

OS:Schedule:Day,
  {00308777-7e94-4c43-8863-739eba3c36ee}, !- Handle
  0800|1800|MidriseApartment|xApartment|lighting Winter Design Day, !- Name
  {ab6f59a1-5c7a-46b3-be32-ffc3cfac064a}, !- Schedule Type Limits Name
  ,                                       !- Interpolate to Timestep
  24,                                     !- Hour 1
  0,                                      !- Minute 1
  0.07;                                   !- Value Until Time 1

OS:Schedule:Ruleset,
  {fd7a469c-2802-41f1-abde-9ddbd3884028}, !- Handle
  0800|1800|MidriseApartment|default|clg_setpoint, !- Name
  {8ae8600a-e9ce-4e0f-bd0c-523ad0efb3bf}, !- Schedule Type Limits Name
  {9880e57d-3603-4c12-a727-3e715b224630}, !- Default Day Schedule Name
  {13d2a67e-5a4d-4f4a-a6e8-7782fb02919a}, !- Summer Design Day Schedule Name
  {b2e55671-2d40-4b56-993e-3b6442577e2b}; !- Winter Design Day Schedule Name

OS:ScheduleTypeLimits,
  {8ae8600a-e9ce-4e0f-bd0c-523ad0efb3bf}, !- Handle
  Thermostat Cooling Setpoint Schedule Type Limits, !- Name
  0,                                      !- Lower Limit Value {BasedOnField A4}
  100,                                    !- Upper Limit Value {BasedOnField A4}
  Continuous,                             !- Numeric Type
  Temperature;                            !- Unit Type

OS:Schedule:Day,
  {9880e57d-3603-4c12-a727-3e715b224630}, !- Handle
  0800|1800|MidriseApartment|default|clg_setpoint |default, !- Name
  {8ae8600a-e9ce-4e0f-bd0c-523ad0efb3bf}, !- Schedule Type Limits Name
  ,                                       !- Interpolate to Timestep
  24,                                     !- Hour 1
  0,                                      !- Minute 1
  23.8888888888889;                       !- Value Until Time 1

OS:Schedule:Day,
  {13d2a67e-5a4d-4f4a-a6e8-7782fb02919a}, !- Handle
  0800|1800|MidriseApartment|default|clg_setpoint Summer Design Day, !- Name
  {8ae8600a-e9ce-4e0f-bd0c-523ad0efb3bf}, !- Schedule Type Limits Name
  ,                                       !- Interpolate to Timestep
  24,                                     !- Hour 1
  0,                                      !- Minute 1
  23.8888888888889;                       !- Value Until Time 1

OS:Schedule:Day,
  {b2e55671-2d40-4b56-993e-3b6442577e2b}, !- Handle
  0800|1800|MidriseApartment|default|clg_setpoint Winter Design Day, !- Name
  {8ae8600a-e9ce-4e0f-bd0c-523ad0efb3bf}, !- Schedule Type Limits Name
  ,                                       !- Interpolate to Timestep
  24,                                     !- Hour 1
  0,                                      !- Minute 1
  23.8888888888889;                       !- Value Until Time 1

OS:Schedule:Ruleset,
  {22d63896-f7f8-46a0-89d9-8a89ccfffea8}, !- Handle
  0800|1800|MidriseApartment|default|work_eff, !- Name
  {1c8bb679-a949-471c-8a2c-935ce27051be}, !- Schedule Type Limits Name
  {e64081b8-5e8a-4cea-a49a-2fc94c7407b7}, !- Default Day Schedule Name
  {19422e14-b25c-4300-a15b-e0ef93124a04}, !- Summer Design Day Schedule Name
  {37b0c2ce-3479-4aa3-9a1b-0cc97213fc14}; !- Winter Design Day Schedule Name

OS:ScheduleTypeLimits,
  {1c8bb679-a949-471c-8a2c-935ce27051be}, !- Handle
  Fraction Schedule Type Limits,          !- Name
  0,                                      !- Lower Limit Value {BasedOnField A4}
  1,                                      !- Upper Limit Value {BasedOnField A4}
  Continuous,                             !- Numeric Type
  Dimensionless;                          !- Unit Type

OS:Schedule:Day,
  {e64081b8-5e8a-4cea-a49a-2fc94c7407b7}, !- Handle
  0800|1800|MidriseApartment|default|work_eff |default, !- Name
  {1c8bb679-a949-471c-8a2c-935ce27051be}, !- Schedule Type Limits Name
  ,                                       !- Interpolate to Timestep
  24,                                     !- Hour 1
  0,                                      !- Minute 1
  0;                                      !- Value Until Time 1

OS:Schedule:Day,
  {19422e14-b25c-4300-a15b-e0ef93124a04}, !- Handle
  0800|1800|MidriseApartment|default|work_eff Summer Design Day, !- Name
  {1c8bb679-a949-471c-8a2c-935ce27051be}, !- Schedule Type Limits Name
  ,                                       !- Interpolate to Timestep
  24,                                     !- Hour 1
  0,                                      !- Minute 1
  0;                                      !- Value Until Time 1

OS:Schedule:Day,
  {37b0c2ce-3479-4aa3-9a1b-0cc97213fc14}, !- Handle
  0800|1800|MidriseApartment|default|work_eff Winter Design Day, !- Name
  {1c8bb679-a949-471c-8a2c-935ce27051be}, !- Schedule Type Limits Name
  ,                                       !- Interpolate to Timestep
  24,                                     !- Hour 1
  0,                                      !- Minute 1
  0;                                      !- Value Until Time 1

OS:Schedule:Ruleset,
  {f18caf3f-19c5-45b3-8ac4-17ec32e52287}, !- Handle
  0800|1800|MidriseApartment|default|rh,  !- Name
  {dca98616-2d0a-422d-ba29-d685e2d488e0}, !- Schedule Type Limits Name
  {d2a411ac-f1d5-47b0-bbcb-558bb763a821}, !- Default Day Schedule Name
  {bc41c8ee-9619-42cb-954a-7ef159d05c12}, !- Summer Design Day Schedule Name
  {8fdb8a8f-bf53-4165-b1a8-3b7beb4e7d3d}; !- Winter Design Day Schedule Name

OS:ScheduleTypeLimits,
  {dca98616-2d0a-422d-ba29-d685e2d488e0}, !- Handle
  Dimensionless Schedule Type Limits,     !- Name
  ,                                       !- Lower Limit Value {BasedOnField A4}
  ,                                       !- Upper Limit Value {BasedOnField A4}
  Continuous,                             !- Numeric Type
  Dimensionless;                          !- Unit Type

OS:Schedule:Day,
  {d2a411ac-f1d5-47b0-bbcb-558bb763a821}, !- Handle
  0800|1800|MidriseApartment|default|rh |default, !- Name
  {dca98616-2d0a-422d-ba29-d685e2d488e0}, !- Schedule Type Limits Name
  ,                                       !- Interpolate to Timestep
  24,                                     !- Hour 1
  0,                                      !- Minute 1
  50;                                     !- Value Until Time 1

OS:Schedule:Day,
  {bc41c8ee-9619-42cb-954a-7ef159d05c12}, !- Handle
  0800|1800|MidriseApartment|default|rh Summer Design Day, !- Name
  {dca98616-2d0a-422d-ba29-d685e2d488e0}, !- Schedule Type Limits Name
  ,                                       !- Interpolate to Timestep
  24,                                     !- Hour 1
  0,                                      !- Minute 1
  50;                                     !- Value Until Time 1

OS:Schedule:Day,
  {8fdb8a8f-bf53-4165-b1a8-3b7beb4e7d3d}, !- Handle
  0800|1800|MidriseApartment|default|rh Winter Design Day, !- Name
  {dca98616-2d0a-422d-ba29-d685e2d488e0}, !- Schedule Type Limits Name
  ,                                       !- Interpolate to Timestep
  24,                                     !- Hour 1
  0,                                      !- Minute 1
  50;                                     !- Value Until Time 1

OS:Schedule:Ruleset,
  {173ba3cf-632f-49f7-addf-8014ecf35c23}, !- Handle
  0800|1800|MidriseApartment|Office|lighting, !- Name
  {ab6f59a1-5c7a-46b3-be32-ffc3cfac064a}, !- Schedule Type Limits Name
  {ce058d32-6028-4885-83cb-28dff6830307}, !- Default Day Schedule Name
  {985bcec4-3c86-48b6-9516-e7695a5aee40}, !- Summer Design Day Schedule Name
  {593dce65-8df4-4f16-9387-aa3d259de96a}; !- Winter Design Day Schedule Name

OS:Schedule:Day,
  {ce058d32-6028-4885-83cb-28dff6830307}, !- Handle
  0800|1800|MidriseApartment|Office|lighting |default, !- Name
  {ab6f59a1-5c7a-46b3-be32-ffc3cfac064a}, !- Schedule Type Limits Name
  ,                                       !- Interpolate to Timestep
  8,                                      !- Hour 1
  0,                                      !- Minute 1
  0.18,                                   !- Value Until Time 1
  12,                                     !- Hour 2
  30,                                     !- Minute 2
  0.9,                                    !- Value Until Time 2
  13,                                     !- Hour 3
  30,                                     !- Minute 3
  0.8,                                    !- Value Until Time 3
  18,                                     !- Hour 4
  0,                                      !- Minute 4
  0.9,                                    !- Value Until Time 4
  24,                                     !- Hour 5
  0,                                      !- Minute 5
  0.18;                                   !- Value Until Time 5

OS:Schedule:Day,
  {985bcec4-3c86-48b6-9516-e7695a5aee40}, !- Handle
  0800|1800|MidriseApartment|Office|lighting Summer Design Day, !- Name
  {ab6f59a1-5c7a-46b3-be32-ffc3cfac064a}, !- Schedule Type Limits Name
  ,                                       !- Interpolate to Timestep
  8,                                      !- Hour 1
  0,                                      !- Minute 1
  0.18,                                   !- Value Until Time 1
  18,                                     !- Hour 2
  0,                                      !- Minute 2
  1,                                      !- Value Until Time 2
  24,                                     !- Hour 3
  0,                                      !- Minute 3
  0.18;                                   !- Value Until Time 3

OS:Schedule:Day,
  {593dce65-8df4-4f16-9387-aa3d259de96a}, !- Handle
  0800|1800|MidriseApartment|Office|lighting Winter Design Day, !- Name
  {ab6f59a1-5c7a-46b3-be32-ffc3cfac064a}, !- Schedule Type Limits Name
  ,                                       !- Interpolate to Timestep
  24,                                     !- Hour 1
  0,                                      !- Minute 1
  0.18;                                   !- Value Until Time 1

OS:Schedule:Ruleset,
  {67b240f4-41e0-4258-98ec-99d4fe986218}, !- Handle
  0800|1800|MidriseApartment|default|elevator, !- Name
  {8d8491b0-39f5-4224-9e1a-cbbfae3c9f37}, !- Schedule Type Limits Name
  {6766df69-017d-4001-879f-e73a9a572f08}, !- Default Day Schedule Name
  {50bce661-b2dc-4ffc-9718-cf8caba32f03}, !- Summer Design Day Schedule Name
  {1e2a8cfe-3b7c-4c8e-96b0-05cfa7f623da}; !- Winter Design Day Schedule Name

OS:ScheduleTypeLimits,
  {8d8491b0-39f5-4224-9e1a-cbbfae3c9f37}, !- Handle
  Elevators Schedule Type Limits,         !- Name
  0,                                      !- Lower Limit Value {BasedOnField A4}
  1,                                      !- Upper Limit Value {BasedOnField A4}
  Continuous,                             !- Numeric Type
  Dimensionless;                          !- Unit Type

OS:Schedule:Day,
  {6766df69-017d-4001-879f-e73a9a572f08}, !- Handle
  0800|1800|MidriseApartment|default|elevator |default, !- Name
  {8d8491b0-39f5-4224-9e1a-cbbfae3c9f37}, !- Schedule Type Limits Name
  ,                                       !- Interpolate to Timestep
  4,                                      !- Hour 1
  0,                                      !- Minute 1
  0.05,                                   !- Value Until Time 1
  5,                                      !- Hour 2
  0,                                      !- Minute 2
  0.1,                                    !- Value Until Time 2
  6,                                      !- Hour 3
  0,                                      !- Minute 3
  0.2,                                    !- Value Until Time 3
  7,                                      !- Hour 4
  0,                                      !- Minute 4
  0.4,                                    !- Value Until Time 4
  9,                                      !- Hour 5
  0,                                      !- Minute 5
  0.5,                                    !- Value Until Time 5
  10,                                     !- Hour 6
  0,                                      !- Minute 6
  0.35,                                   !- Value Until Time 6
  16,                                     !- Hour 7
  0,                                      !- Minute 7