
OS:Version,
  {a927b058-e773-44d6-bfe3-4b8f6746e069}, !- Handle
  1.5.5;                                  !- Version Identifier

OS:ClimateZones,
  {135edfab-17e7-40db-a436-27d385a8cd6d}, !- Handle
  ,                                       !- Active Institution
  ,                                       !- Active Year
  ASHRAE,                                 !- Climate Zone Institution Name 1
  ANSI/ASHRAE Standard 169,               !- Climate Zone Document Name 1
  2006,                                   !- Climate Zone Document Year 1
  ,                                       !- Climate Zone Value 1
  CEC,                                    !- Climate Zone Institution Name 2
  California Climate Zone Descriptions,   !- Climate Zone Document Name 2
  1995,                                   !- Climate Zone Document Year 2
  ;                                       !- Climate Zone Value 2

OS:YearDescription,
  {513d8dda-86cb-442a-b01c-1f7f0e0ac70e}; !- Handle

OS:RadianceParameters,
  {270a96f1-3c86-4b75-a667-cdf22790e2c8}, !- Handle
  1,                                      !- Accumulated Rays per Record
  0,                                      !- Direct Threshold
  1,                                      !- Direct Certainty
  1,                                      !- Direct Jitter
  1,                                      !- Direct Pretest
  6,                                      !- Ambient Bounces VMX
  2,                                      !- Ambient Bounces DMX
  4050,                                   !- Ambient Divisions VMX
  512,                                    !- Ambient Divisions DMX
  256,                                    !- Ambient Supersamples
  0.001,                                  !- Limit Weight VMX
  0.001,                                  !- Limit Weight DMX
  500,                                    !- Klems Sampling Density
  146;                                    !- Sky Discretization Resolution

OS:SimulationControl,
  {2c487a4c-bac9-4ac5-b669-1e49d9da7c2b}, !- Handle
  ,                                       !- Do Zone Sizing Calculation
  ,                                       !- Do System Sizing Calculation
  ,                                       !- Do Plant Sizing Calculation
  No,                                     !- Run Simulation for Sizing Periods
  ,                                       !- Run Simulation for Weather File Run Periods
  0.04,                                   !- Loads Convergence Tolerance Value
  ,                                       !- Temperature Convergence Tolerance Value {deltaC}
  ,                                       !- Solar Distribution
  ,                                       !- Maximum Number of Warmup Days
  2;                                      !- Minimum Number of Warmup Days

OS:Sizing:Parameters,
  {dde5af6f-7923-4600-a28a-7556673a0266}, !- Handle
  1.25,                                   !- Heating Sizing Factor
  1.15;                                   !- Cooling Sizing Factor

OS:ProgramControl,
  {05027a99-f2b3-4aeb-afc6-1425fbb4371d}; !- Handle

OS:Timestep,
  {4ebc9f1e-4707-402e-9844-67eb1ffbd522}, !- Handle
  2;                                      !- Number of Timesteps per Hour

OS:OutputControl:ReportingTolerances,
  {65797aa2-06a9-45fe-b69d-bc6e060399d3}; !- Handle

OS:ConvergenceLimits,
  {9fc11aba-8822-4f3d-970c-46391ba4040d}; !- Handle

OS:ShadowCalculation,
  {ca758bea-4416-4626-9bba-3d8795c79bd6}, !- Handle
  7,                                      !- Calculation Frequency
  15000;                                  !- Maximum Figures in Shadow Overlap Calculations

OS:SurfaceConvectionAlgorithm:Inside,
  {aaabfc36-718a-4ab0-b622-f186ebb45230}, !- Handle
  TARP;                                   !- Algorithm

OS:SurfaceConvectionAlgorithm:Outside,
  {9a0a9f6f-4bbd-4b12-a121-9492a1fcd7d6}, !- Handle
  DOE-2;                                  !- Algorithm

OS:HeatBalanceAlgorithm,
  {9d93e563-e1e0-46d7-9e39-d1c8aceb7212}, !- Handle
  ConductionTransferFunction,             !- Algorithm
  200;                                    !- Surface Temperature Upper Limit {F}

OS:ZoneAirHeatBalanceAlgorithm,
  {8520d93e-310f-4696-9bcd-36228bfdd743}, !- Handle
  AnalyticalSolution;                     !- Algorithm

OS:ZoneAirContaminantBalance,
  {eb5fc3ae-fb22-4160-8fcb-3e3b22b000d3}; !- Handle

OS:ZoneCapacitanceMultiplier:ResearchSpecial,
  {4020ce4f-5a7a-4849-8028-8305d7b751b1}, !- Handle
  ,                                       !- Temperature Capacity Multiplier
  ,                                       !- Humidity Capacity Multiplier
  ;                                       !- Carbon Dioxide Capacity Multiplier

OS:RunPeriod,
  {28df894d-6af9-4fb8-8f56-df1753344aa3}, !- Handle
  Run Period 1,                           !- Name
  1,                                      !- Begin Month
  1,                                      !- Begin Day of Month
  12,                                     !- End Month
  31,                                     !- End Day of Month
  ,                                       !- Use Weather File Holidays and Special Days
  ,                                       !- Use Weather File Daylight Saving Period
  ,                                       !- Apply Weekend Holiday Rule
  ,                                       !- Use Weather File Rain Indicators
  ,                                       !- Use Weather File Snow Indicators
  ;                                       !- Number of Times Runperiod to be Repeated

OS:Building,
  {bf305633-c5a1-4881-9edf-ca5e1a8e1274}, !- Handle
  Building 1,                             !- Name
  ,                                       !- Building Sector Type
  ,                                       !- North Axis {deg}
  ,                                       !- Nominal Floor to Floor Height {m}
  ,                                       !- Space Type Name
  ,                                       !- Default Construction Set Name
  {dc4d2f3e-8d1e-4ed4-ae2b-facaac9fc304}, !- Default Schedule Set Name
  ,                                       !- Standards Number of Stories
  ,                                       !- Standards Number of Above Ground Stories
  MidriseApartment;                       !- Standards Building Type

OS:LifeCycleCost:Parameters,
  {231cf8a0-f0e7-4251-a99f-11f0d464e661}, !- Handle
  FEMP,                                   !- Analysis Type
  ,                                       !- Discounting Convention
  ,                                       !- Inflation Approach
  ,                                       !- Real Discount Rate
  ,                                       !- Nominal Discount Rate
  ,                                       !- Inflation
  ,                                       !- Base Date Month
  ,                                       !- Base Date Year
  ,                                       !- Service Date Month
  ,                                       !- Service Date Year
  ,                                       !- Length of Study Period in Years
  ,                                       !- Tax Rate
  ,                                       !- Depreciation Method
  Yes;                                    !- Use NIST Fuel Escalation Rates

OS:Facility,
  {3ba8e45b-b833-44eb-a723-ea6c3946dc96}; !- Handle

OS:SpaceType,
  {f7f17856-dc12-430e-8f1c-a4f8fe993ba6}, !- Handle
  MidriseApartment|Apartment|DOE Ref 2004|ASHRAE 169-2006-5A, !- Name
  {14bdaca6-8b44-4887-b11e-f02dbc68eb34}, !- Default Construction Set Name
  {3439b7b6-61ce-44a7-9ad6-14d9681c8b8a}, !- Default Schedule Set Name
  {5a7132da-0db9-4d31-92aa-32ef9e92ae75}, !- Group Rendering Name
  {431a3560-6eb9-4dc2-ae9a-09080eab91c0}, !- Design Specification Outdoor Air Object Name
  MidriseApartment,                       !- Standards Building Type
  Apartment;                              !- Standards Space Type

OS:Rendering:Color,
  {5a7132da-0db9-4d31-92aa-32ef9e92ae75}, !- Handle
  Rendering Color 1,                      !- Name
  78,                                     !- Rendering Red Value
  167,                                    !- Rendering Green Value
  222;                                    !- Rendering Blue Value

OS:Schedule:Ruleset,
  {03cbf258-4cd1-4bee-90ab-ada1effea770}, !- Handle
  0800|1800|MidriseApartment|default|hoo, !- Name
  {8908b204-f06b-4060-a3be-0f72c07e33cc}, !- Schedule Type Limits Name
  {6d544884-d863-4277-b62a-1ac2447829e5}, !- Default Day Schedule Name
  {3fa58d8b-9dc6-4f64-a904-eb87365f3d7a}, !- Summer Design Day Schedule Name
  {65e619ef-0163-4df2-a4ce-577807ada415}; !- Winter Design Day Schedule Name

OS:Schedule:Day,
  {6d544884-d863-4277-b62a-1ac2447829e5}, !- Handle
  0800|1800|MidriseApartment|default|hoo Schedule Week Day, !- Name
  {8908b204-f06b-4060-a3be-0f72c07e33cc}, !- Schedule Type Limits Name
  ,                                       !- Interpolate to Timestep
  8,                                      !- Hour 1
  0,                                      !- Minute 1
  0,                                      !- Value Until Time 1
  18,                                     !- Hour 2
  0,                                      !- Minute 2
  1,                                      !- Value Until Time 2
  24,                                     !- Hour 3
  0,                                      !- Minute 3
  0;                                      !- Value Until Time 3

OS:Schedule:Day,
  {51a38c4a-1b1c-46e6-9969-7c15b3366ebe}, !- Handle
  Schedule Day 2,                         !- Name
  ,                                       !- Schedule Type Limits Name
  ,                                       !- Interpolate to Timestep
  24,                                     !- Hour 1
  0,                                      !- Minute 1
  0;                                      !- Value Until Time 1

OS:Schedule:Day,
  {65e619ef-0163-4df2-a4ce-577807ada415}, !- Handle
  0800|1800|MidriseApartment|default|hoo Winter Design Day, !- Name
  {8908b204-f06b-4060-a3be-0f72c07e33cc}, !- Schedule Type Limits Name
  ,                                       !- Interpolate to Timestep
  24,                                     !- Hour 1
  0,                                      !- Minute 1
  0;                                      !- Value Until Time 1

OS:Schedule:Day,
  {b19d1288-8d84-49fc-ae7c-23f628374499}, !- Handle
  Schedule Day 3,                         !- Name
  ,                                       !- Schedule Type Limits Name
  ,                                       !- Interpolate to Timestep
  24,                                     !- Hour 1
  0,                                      !- Minute 1
  0;                                      !- Value Until Time 1

OS:Schedule:Day,
  {3fa58d8b-9dc6-4f64-a904-eb87365f3d7a}, !- Handle
  0800|1800|MidriseApartment|default|hoo Summer Design Day, !- Name
  {8908b204-f06b-4060-a3be-0f72c07e33cc}, !- Schedule Type Limits Name
  ,                                       !- Interpolate to Timestep
  24,                                     !- Hour 1
  0,                                      !- Minute 1
  1;                                      !- Value Until Time 1

OS:DefaultScheduleSet,
  {dc4d2f3e-8d1e-4ed4-ae2b-facaac9fc304}, !- Handle
  Building Hours of Operation,            !- Name
  {03cbf258-4cd1-4bee-90ab-ada1effea770}, !- Hours of Operation Schedule Name
  ,                                       !- Number of People Schedule Name
  ,                                       !- People Activity Level Schedule Name
  ,                                       !- Lighting Schedule Name
  ,                                       !- Electric Equipment Schedule Name
  ,                                       !- Gas Equipment Schedule Name
  ,                                       !- Hot Water Equipment Schedule Name
  ,                                       !- Infiltration Schedule Name
  ,                                       !- Steam Equipment Schedule Name
  ;                                       !- Other Equipment Schedule Name

OS:ScheduleTypeLimits,
  {8908b204-f06b-4060-a3be-0f72c07e33cc}, !- Handle
  OnOff,                                  !- Name
  0,                                      !- Lower Limit Value {BasedOnField A4}
  1,                                      !- Upper Limit Value {BasedOnField A4}
  Discrete,                               !- Numeric Type
  Availability;                           !- Unit Type

OS:Schedule:Ruleset,
  {51663c25-63c8-4d12-8367-a5045d1256eb}, !- Handle
  0800|1800|MidriseApartment|xApartment|lighting, !- Name
  {f251bb91-b7cc-4b09-b851-c72628941872}, !- Schedule Type Limits Name
  {7cdfcf97-c25d-413d-ab83-0026eb67bec1}, !- Default Day Schedule Name
  {2ff9f6ae-5679-412e-8836-4b58fe47c210}, !- Summer Design Day Schedule Name
  {a97fa8f9-3e71-473d-8c8a-b81ff30860b6}; !- Winter Design Day Schedule Name

OS:ScheduleTypeLimits,
  {f251bb91-b7cc-4b09-b851-c72628941872}, !- Handle
  Lights Schedule Type Limits,            !- Name
  0,                                      !- Lower Limit Value {BasedOnField A4}
  1,                                      !- Upper Limit Value {BasedOnField A4}
  Continuous,                             !- Numeric Type
  Dimensionless;                          !- Unit Type

OS:Schedule:Day,
  {7cdfcf97-c25d-413d-ab83-0026eb67bec1}, !- Handle
  0800|1800|MidriseApartment|xApartment|lighting |default, !- Name
  {f251bb91-b7cc-4b09-b851-c72628941872}, !- Schedule Type Limits Name
  ,                                       !- Interpolate to Timestep
  4,                                      !- Hour 1
  0,                                      !- Minute 1
  0.07,                                   !- Value Until Time 1
  5,                                      !- Hour 2
  0,                                      !- Minute 2
  0.19,                                   !- Value Until Time 2
  6,                                      !- Hour 3
  0,                                      !- Minute 3
  0.39,                                   !- Value Until Time 3
  7,                                      !- Hour 4
  0,                                      !- Minute 4
  0.44,                                   !- Value Until Time 4
  8,                                      !- Hour 5
  0,                                      !- Minute 5
  0.39,                                   !- Value Until Time 5
  9,                                      !- Hour 6
  0,                                      !- Minute 6
  0.17,                                   !- Value Until Time 6
  15,                                     !- Hour 7
  0,                                      !- Minute 7
  0.12,                                   !- Value Until Time 7
  16,                                     !- Hour 8
  0,                                      !- Minute 8
  0.21,                                   !- Value Until Time 8
  17,                                     !- Hour 9
  0,                                      !- Minute 9
  0.44,                                   !- Value Until Time 9
  18,                                     !- Hour 10
  0,                                      !- Minute 10
  0.62,                                   !- Value Until Time 10
  19,                                     !- Hour 11
  0,                                      !- Minute 11
  0.83,                                   !- Value Until Time 11
  20,                                     !- Hour 12
  0,                                      !- Minute 12
  0.99,                                   !- Value Until Time 12
  21,                                     !- Hour 13
  0,                                      !- Minute 13
  1,                                      !- Value Until Time 13
  22,                                     !- Hour 14
  0,                                      !- Minute 14
  0.69,                                   !- Value Until Time 14
  23,                                     !- Hour 15
  0,                                      !- Minute 15
  0.38,                                   !- Value Until Time 15
  24,                                     !- Hour 16
  0,                                      !- Minute 16
  0.16;                                   !- Value Until Time 16

OS:Schedule:Day,
  {2ff9f6ae-5679-412e-8836-4b58fe47c210}, !- Handle
  0800|1800|MidriseApartment|xApartment|lighting Summer Design Day, !- Name
  {f251bb91-b7cc-4b09-b851-c72628941872}, !- Schedule Type Limits Name
  ,                                       !- Interpolate to Timestep
  4,                                      !- Hour 1
  0,                                      !- Minute 1
  0.07,                                   !- Value Until Time 1
  5,                                      !- Hour 2
  0,                                      !- Minute 2
  0.19,                                   !- Value Until Time 2
  8,                                      !- Hour 3
  0,                                      !- Minute 3
  1,                                      !- Value Until Time 3
  9,                                      !- Hour 4
  0,                                      !- Minute 4
  0.17,                                   !- Value Until Time 4
  15,                                     !- Hour 5
  0,                                      !- Minute 5
  0.12,                                   !- Value Until Time 5
  16,                                     !- Hour 6
  0,                                      !- Minute 6
  0.21,                                   !- Value Until Time 6
  23,                                     !- Hour 7
  0,                                      !- Minute 7
  1,                                      !- Value Until Time 7
  24,                                     !- Hour 8
  0,                                      !- Minute 8
  0.16;                                   !- Value Until Time 8

OS:Schedule:Day,
  {a97fa8f9-3e71-473d-8c8a-b81ff30860b6}, !- Handle
  0800|1800|MidriseApartment|xApartment|lighting Winter Design Day, !- Name
  {f251bb91-b7cc-4b09-b851-c72628941872}, !- Schedule Type Limits Name
  ,                                       !- Interpolate to Timestep
  24,                                     !- Hour 1
  0,                                      !- Minute 1
  0.07;                                   !- Value Until Time 1

OS:Schedule:Ruleset,
  {0af3a8a4-7476-470d-9b06-9c135381297b}, !- Handle
  0800|1800|MidriseApartment|default|clg_setpoint, !- Name
  {006b8007-81db-4efe-85a6-ea3532d44834}, !- Schedule Type Limits Name
  {982a341d-e262-4b96-b6f0-0cc3639251db}, !- Default Day Schedule Name
  {57d74eb6-7abb-4165-a2a1-584fb1aef9eb}, !- Summer Design Day Schedule Name
  {d014dbc8-0907-4fbd-939e-e9b83e626993}; !- Winter Design Day Schedule Name

OS:ScheduleTypeLimits,
  {006b8007-81db-4efe-85a6-ea3532d44834}, !- Handle
  Thermostat Cooling Setpoint Schedule Type Limits, !- Name
  0,                                      !- Lower Limit Value {BasedOnField A4}
  100,                                    !- Upper Limit Value {BasedOnField A4}
  Continuous,                             !- Numeric Type
  Temperature;                            !- Unit Type

OS:Schedule:Day,
  {982a341d-e262-4b96-b6f0-0cc3639251db}, !- Handle
  0800|1800|MidriseApartment|default|clg_setpoint |default, !- Name
  {006b8007-81db-4efe-85a6-ea3532d44834}, !- Schedule Type Limits Name
  ,                                       !- Interpolate to Timestep
  24,                                     !- Hour 1
  0,                                      !- Minute 1
  23.8888888888889;                       !- Value Until Time 1

OS:Schedule:Day,
  {57d74eb6-7abb-4165-a2a1-584fb1aef9eb}, !- Handle
  0800|1800|MidriseApartment|default|clg_setpoint Summer Design Day, !- Name
  {006b8007-81db-4efe-85a6-ea3532d44834}, !- Schedule Type Limits Name
  ,                                       !- Interpolate to Timestep
  24,                                     !- Hour 1
  0,                                      !- Minute 1
  23.8888888888889;                       !- Value Until Time 1

OS:Schedule:Day,
  {d014dbc8-0907-4fbd-939e-e9b83e626993}, !- Handle
  0800|1800|MidriseApartment|default|clg_setpoint Winter Design Day, !- Name
  {006b8007-81db-4efe-85a6-ea3532d44834}, !- Schedule Type Limits Name
  ,                                       !- Interpolate to Timestep
  24,                                     !- Hour 1
  0,                                      !- Minute 1
  23.8888888888889;                       !- Value Until Time 1

OS:Schedule:Ruleset,
  {c042bd29-e426-4626-a47c-fccbd6a5b933}, !- Handle
  0800|1800|MidriseApartment|default|work_eff, !- Name
  {f4bd36f1-aa06-4734-bbc5-a0657953b5b4}, !- Schedule Type Limits Name
  {4d98f10b-14cb-43e9-a57c-792c102daa0f}, !- Default Day Schedule Name
  {63561564-df1f-4b5a-9c70-243e438b4210}, !- Summer Design Day Schedule Name
  {0d2dff3d-0caf-4be2-ba1e-8bbb5dabb096}; !- Winter Design Day Schedule Name

OS:ScheduleTypeLimits,
  {f4bd36f1-aa06-4734-bbc5-a0657953b5b4}, !- Handle
  Fraction Schedule Type Limits,          !- Name
  0,                                      !- Lower Limit Value {BasedOnField A4}
  1,                                      !- Upper Limit Value {BasedOnField A4}
  Continuous,                             !- Numeric Type
  Dimensionless;                          !- Unit Type

OS:Schedule:Day,
  {4d98f10b-14cb-43e9-a57c-792c102daa0f}, !- Handle
  0800|1800|MidriseApartment|default|work_eff |default, !- Name
  {f4bd36f1-aa06-4734-bbc5-a0657953b5b4}, !- Schedule Type Limits Name
  ,                                       !- Interpolate to Timestep
  24,                                     !- Hour 1
  0,                                      !- Minute 1
  0;                                      !- Value Until Time 1

OS:Schedule:Day,
  {63561564-df1f-4b5a-9c70-243e438b4210}, !- Handle
  0800|1800|MidriseApartment|default|work_eff Summer Design Day, !- Name
  {f4bd36f1-aa06-4734-bbc5-a0657953b5b4}, !- Schedule Type Limits Name
  ,                                       !- Interpolate to Timestep
  24,                                     !- Hour 1
  0,                                      !- Minute 1
  0;                                      !- Value Until Time 1

OS:Schedule:Day,
  {0d2dff3d-0caf-4be2-ba1e-8bbb5dabb096}, !- Handle
  0800|1800|MidriseApartment|default|work_eff Winter Design Day, !- Name
  {f4bd36f1-aa06-4734-bbc5-a0657953b5b4}, !- Schedule Type Limits Name
  ,                                       !- Interpolate to Timestep
  24,                                     !- Hour 1
  0,                                      !- Minute 1
  0;                                      !- Value Until Time 1

OS:Schedule:Ruleset,
  {d3f62715-832f-4233-a53c-dec58701a57b}, !- Handle
  0800|1800|MidriseApartment|default|rh,  !- Name
  {a106a85b-0b54-4cbe-93df-36ac7573a349}, !- Schedule Type Limits Name
  {17661718-1f7e-4f58-b8a2-ab1674c8beda}, !- Default Day Schedule Name
  {27ee4aa4-3a3f-49ea-a8a4-202647fe4d53}, !- Summer Design Day Schedule Name
  {63874d08-68e6-4497-87ad-bad19ace5871}; !- Winter Design Day Schedule Name

OS:ScheduleTypeLimits,
  {a106a85b-0b54-4cbe-93df-36ac7573a349}, !- Handle
  Dimensionless Schedule Type Limits,     !- Name
  ,                                       !- Lower Limit Value {BasedOnField A4}
  ,                                       !- Upper Limit Value {BasedOnField A4}
  Continuous,                             !- Numeric Type
  Dimensionless;                          !- Unit Type

OS:Schedule:Day,
  {17661718-1f7e-4f58-b8a2-ab1674c8beda}, !- Handle
  0800|1800|MidriseApartment|default|rh |default, !- Name
  {a106a85b-0b54-4cbe-93df-36ac7573a349}, !- Schedule Type Limits Name
  ,                                       !- Interpolate to Timestep
  24,                                     !- Hour 1
  0,                                      !- Minute 1
  50;                                     !- Value Until Time 1

OS:Schedule:Day,
  {27ee4aa4-3a3f-49ea-a8a4-202647fe4d53}, !- Handle
  0800|1800|MidriseApartment|default|rh Summer Design Day, !- Name
  {a106a85b-0b54-4cbe-93df-36ac7573a349}, !- Schedule Type Limits Name
  ,                                       !- Interpolate to Timestep
  24,                                     !- Hour 1
  0,                                      !- Minute 1
  50;                                     !- Value Until Time 1

OS:Schedule:Day,
  {63874d08-68e6-4497-87ad-bad19ace5871}, !- Handle
  0800|1800|MidriseApartment|default|rh Winter Design Day, !- Name
  {a106a85b-0b54-4cbe-93df-36ac7573a349}, !- Schedule Type Limits Name
  ,                                       !- Interpolate to Timestep
  24,                                     !- Hour 1
  0,                                      !- Minute 1
  50;                                     !- Value Until Time 1

OS:Schedule:Ruleset,
  {b938af07-d81f-4535-825f-4d7c154cbae4}, !- Handle
  0800|1800|MidriseApartment|Office|lighting, !- Name
  {f251bb91-b7cc-4b09-b851-c72628941872}, !- Schedule Type Limits Name
  {b5c6c93a-08eb-4154-981c-8ef5badf7b4f}, !- Default Day Schedule Name
  {bc53bc20-06d9-4ad2-b693-55a43a83beb2}, !- Summer Design Day Schedule Name
  {67706de7-df42-4977-a6db-a42d8d7732fb}; !- Winter Design Day Schedule Name

OS:Schedule:Day,
  {b5c6c93a-08eb-4154-981c-8ef5badf7b4f}, !- Handle
  0800|1800|MidriseApartment|Office|lighting |default, !- Name
  {f251bb91-b7cc-4b09-b851-c72628941872}, !- Schedule Type Limits Name
  ,                                       !- Interpolate to Timestep
  8,                                      !- Hour 1
  0,                                      !- Minute 1
  0.18,                                   !- Value Until Time 1
  12,                                     !- Hour 2
  30,                                     !- Minute 2
  0.9,                                    !- Value Until Time 2
  13,                                     !- Hour 3
  30,                                     !- Minute 3
  0.8,                                    !- Value Until Time 3
  18,                                     !- Hour 4
  0,                                      !- Minute 4
  0.9,                                    !- Value Until Time 4
  24,                                     !- Hour 5
  0,                                      !- Minute 5
  0.18;                                   !- Value Until Time 5

OS:Schedule:Day,
  {bc53bc20-06d9-4ad2-b693-55a43a83beb2}, !- Handle
  0800|1800|MidriseApartment|Office|lighting Summer Design Day, !- Name
  {f251bb91-b7cc-4b09-b851-c72628941872}, !- Schedule Type Limits Name
  ,                                       !- Interpolate to Timestep
  8,                                      !- Hour 1
  0,                                      !- Minute 1
  0.18,                                   !- Value Until Time 1
  18,                                     !- Hour 2
  0,                                      !- Minute 2
  1,                                      !- Value Until Time 2
  24,                                     !- Hour 3
  0,                                      !- Minute 3
  0.18;                                   !- Value Until Time 3

OS:Schedule:Day,
  {67706de7-df42-4977-a6db-a42d8d7732fb}, !- Handle
  0800|1800|MidriseApartment|Office|lighting Winter Design Day, !- Name
  {f251bb91-b7cc-4b09-b851-c72628941872}, !- Schedule Type Limits Name
  ,                                       !- Interpolate to Timestep
  24,                                     !- Hour 1
  0,                                      !- Minute 1
  0.18;                                   !- Value Until Time 1

OS:Schedule:Ruleset,
  {3e74b38d-9663-40f3-8782-48265d8771fc}, !- Handle
  0800|1800|MidriseApartment|default|elevator, !- Name
  {e2dd8e94-ae7f-4714-9c88-1cb01e16534e}, !- Schedule Type Limits Name
  {9323ccac-5e28-4eea-a84c-28b322e1d988}, !- Default Day Schedule Name
  {5980c0aa-b08b-4eb9-8066-f7b61e91c1f5}, !- Summer Design Day Schedule Name
  {5a3507bd-73f8-428e-983d-33b46c2bf445}; !- Winter Design Day Schedule Name

OS:ScheduleTypeLimits,
  {e2dd8e94-ae7f-4714-9c88-1cb01e16534e}, !- Handle
  Elevators Schedule Type Limits,         !- Name
  0,                                      !- Lower Limit Value {BasedOnField A4}
  1,                                      !- Upper Limit Value {BasedOnField A4}
  Continuous,                             !- Numeric Type
  Dimensionless;                          !- Unit Type

OS:Schedule:Day,
  {9323ccac-5e28-4eea-a84c-28b322e1d988}, !- Handle
  0800|1800|MidriseApartment|default|elevator |default, !- Name
  {e2dd8e94-ae7f-4714-9c88-1cb01e16534e}, !- Schedule Type Limits Name
  ,                                       !- Interpolate to Timestep
  4,                                      !- Hour 1
  0,                                      !- Minute 1
  0.05,                                   !- Value Until Time 1
  5,                                      !- Hour 2
  0,                                      !- Minute 2
  0.1,                                    !- Value Until Time 2
  6,                                      !- Hour 3
  0,                                      !- Minute 3
  0.2,                                    !- Value Until Time 3
  7,                                      !- Hour 4
  0,                                      !- Minute 4
  0.4,                                    !- Value Until Time 4
  9,                                      !- Hour 5
  0,                                      !- Minute 5
  0.5,                                    !- Value Until Time 5
  10,                                     !- Hour 6
  0,                                      !- Minute 6
  0.35,                                   !- Value Until Time 6
  16,                                     !- Hour 7
  0,                                      !- Minute 7