
OS:Version,
  {74b5ea40-9e57-46f7-a433-5adbd47d09c7}, !- Handle
  1.5.5;                                  !- Version Identifier

OS:ClimateZones,
  {135edfab-17e7-40db-a436-27d385a8cd6d}, !- Handle
  ,                                       !- Active Institution
  ,                                       !- Active Year
  ASHRAE,                                 !- Climate Zone Institution Name 1
  ANSI/ASHRAE Standard 169,               !- Climate Zone Document Name 1
  2006,                                   !- Climate Zone Document Year 1
  ,                                       !- Climate Zone Value 1
  CEC,                                    !- Climate Zone Institution Name 2
  California Climate Zone Descriptions,   !- Climate Zone Document Name 2
  1995,                                   !- Climate Zone Document Year 2
  ;                                       !- Climate Zone Value 2

OS:YearDescription,
  {513d8dda-86cb-442a-b01c-1f7f0e0ac70e}; !- Handle

OS:RadianceParameters,
  {270a96f1-3c86-4b75-a667-cdf22790e2c8}, !- Handle
  1,                                      !- Accumulated Rays per Record
  0,                                      !- Direct Threshold
  1,                                      !- Direct Certainty
  1,                                      !- Direct Jitter
  1,                                      !- Direct Pretest
  6,                                      !- Ambient Bounces VMX
  2,                                      !- Ambient Bounces DMX
  4050,                                   !- Ambient Divisions VMX
  512,                                    !- Ambient Divisions DMX
  256,                                    !- Ambient Supersamples
  0.001,                                  !- Limit Weight VMX
  0.001,                                  !- Limit Weight DMX
  500,                                    !- Klems Sampling Density
  146;                                    !- Sky Discretization Resolution

OS:SimulationControl,
  {2c487a4c-bac9-4ac5-b669-1e49d9da7c2b}, !- Handle
  ,                                       !- Do Zone Sizing Calculation
  ,                                       !- Do System Sizing Calculation
  ,                                       !- Do Plant Sizing Calculation
  No,                                     !- Run Simulation for Sizing Periods
  ,                                       !- Run Simulation for Weather File Run Periods
  0.04,                                   !- Loads Convergence Tolerance Value
  ,                                       !- Temperature Convergence Tolerance Value {deltaC}
  ,                                       !- Solar Distribution
  ,                                       !- Maximum Number of Warmup Days
  2;                                      !- Minimum Number of Warmup Days

OS:Sizing:Parameters,
  {dde5af6f-7923-4600-a28a-7556673a0266}, !- Handle
  1.25,                                   !- Heating Sizing Factor
  1.15;                                   !- Cooling Sizing Factor

OS:ProgramControl,
  {05027a99-f2b3-4aeb-afc6-1425fbb4371d}; !- Handle

OS:Timestep,
  {4ebc9f1e-4707-402e-9844-67eb1ffbd522}, !- Handle
  2;                                      !- Number of Timesteps per Hour

OS:OutputControl:ReportingTolerances,
  {65797aa2-06a9-45fe-b69d-bc6e060399d3}; !- Handle

OS:ConvergenceLimits,
  {9fc11aba-8822-4f3d-970c-46391ba4040d}; !- Handle

OS:ShadowCalculation,
  {ca758bea-4416-4626-9bba-3d8795c79bd6}, !- Handle
  7,                                      !- Calculation Frequency
  15000;                                  !- Maximum Figures in Shadow Overlap Calculations

OS:SurfaceConvectionAlgorithm:Inside,
  {aaabfc36-718a-4ab0-b622-f186ebb45230}, !- Handle
  TARP;                                   !- Algorithm

OS:SurfaceConvectionAlgorithm:Outside,
  {9a0a9f6f-4bbd-4b12-a121-9492a1fcd7d6}, !- Handle
  DOE-2;                                  !- Algorithm

OS:HeatBalanceAlgorithm,
  {9d93e563-e1e0-46d7-9e39-d1c8aceb7212}, !- Handle
  ConductionTransferFunction,             !- Algorithm
  200;                                    !- Surface Temperature Upper Limit {F}

OS:ZoneAirHeatBalanceAlgorithm,
  {8520d93e-310f-4696-9bcd-36228bfdd743}, !- Handle
  AnalyticalSolution;                     !- Algorithm

OS:ZoneAirContaminantBalance,
  {eb5fc3ae-fb22-4160-8fcb-3e3b22b000d3}; !- Handle

OS:ZoneCapacitanceMultiplier:ResearchSpecial,
  {4020ce4f-5a7a-4849-8028-8305d7b751b1}, !- Handle
  ,                                       !- Temperature Capacity Multiplier
  ,                                       !- Humidity Capacity Multiplier
  ;                                       !- Carbon Dioxide Capacity Multiplier

OS:RunPeriod,
  {28df894d-6af9-4fb8-8f56-df1753344aa3}, !- Handle
  Run Period 1,                           !- Name
  1,                                      !- Begin Month
  1,                                      !- Begin Day of Month
  12,                                     !- End Month
  31,                                     !- End Day of Month
  ,                                       !- Use Weather File Holidays and Special Days
  ,                                       !- Use Weather File Daylight Saving Period
  ,                                       !- Apply Weekend Holiday Rule
  ,                                       !- Use Weather File Rain Indicators
  ,                                       !- Use Weather File Snow Indicators
  ;                                       !- Number of Times Runperiod to be Repeated

OS:Building,
  {bf305633-c5a1-4881-9edf-ca5e1a8e1274}, !- Handle
  Building 1,                             !- Name
  ,                                       !- Building Sector Type
  ,                                       !- North Axis {deg}
  ,                                       !- Nominal Floor to Floor Height {m}
  ,                                       !- Space Type Name
  ,                                       !- Default Construction Set Name
  {80319ef6-b97f-4fa4-88ca-2452893785e6}, !- Default Schedule Set Name
  ,                                       !- Standards Number of Stories
  ,                                       !- Standards Number of Above Ground Stories
  SmallHotel;                             !- Standards Building Type

OS:LifeCycleCost:Parameters,
  {231cf8a0-f0e7-4251-a99f-11f0d464e661}, !- Handle
  FEMP,                                   !- Analysis Type
  ,                                       !- Discounting Convention
  ,                                       !- Inflation Approach
  ,                                       !- Real Discount Rate
  ,                                       !- Nominal Discount Rate
  ,                                       !- Inflation
  ,                                       !- Base Date Month
  ,                                       !- Base Date Year
  ,                                       !- Service Date Month
  ,                                       !- Service Date Year
  ,                                       !- Length of Study Period in Years
  ,                                       !- Tax Rate
  ,                                       !- Depreciation Method
  Yes;                                    !- Use NIST Fuel Escalation Rates

OS:Facility,
  {3ba8e45b-b833-44eb-a723-ea6c3946dc96}; !- Handle

OS:SpaceType,
  {d17b0925-2d9a-4bcc-b536-41bd05829f68}, !- Handle
  SmallHotel|BlendGuest|DOE Ref 1980-2004|ASHRAE 169-2006-5A, !- Name
  {015f5d27-78cf-474f-9aca-dd027a6d3341}, !- Default Construction Set Name
  ,                                       !- Default Schedule Set Name
  {670acf77-5d79-4d71-8184-b349c2a3e3e4}, !- Group Rendering Name
  {1f273779-28a7-4898-94c8-e72cbd4d8531}, !- Design Specification Outdoor Air Object Name
  SmallHotel,                             !- Standards Building Type
  BlendGuest;                             !- Standards Space Type

OS:Rendering:Color,
  {670acf77-5d79-4d71-8184-b349c2a3e3e4}, !- Handle
  Rendering Color 1,                      !- Name
  78,                                     !- Rendering Red Value
  167,                                    !- Rendering Green Value
  222;                                    !- Rendering Blue Value

OS:SpaceType,
  {b0cdb50e-4c9c-4a83-9f89-bb2e4644d9fd}, !- Handle
  SmallHotel|BlendMtg|DOE Ref 1980-2004|ASHRAE 169-2006-5A, !- Name
  {015f5d27-78cf-474f-9aca-dd027a6d3341}, !- Default Construction Set Name
  ,                                       !- Default Schedule Set Name
  {8b0239f2-8a0c-43f3-b605-6f029da6e117}, !- Group Rendering Name
  {d43b2385-4588-4be2-8b4e-de4daa3806ae}, !- Design Specification Outdoor Air Object Name
  SmallHotel,                             !- Standards Building Type
  BlendMtg;                               !- Standards Space Type

OS:Rendering:Color,
  {8b0239f2-8a0c-43f3-b605-6f029da6e117}, !- Handle
  Rendering Color 2,                      !- Name
  120,                                    !- Rendering Red Value
  230,                                    !- Rendering Green Value
  199;                                    !- Rendering Blue Value

OS:SpaceType,
  {94a9fedd-eb76-464d-9439-c187825c882c}, !- Handle
  SmallHotel|BlendMisc|DOE Ref 1980-2004|ASHRAE 169-2006-5A, !- Name
  {015f5d27-78cf-474f-9aca-dd027a6d3341}, !- Default Construction Set Name
  ,                                       !- Default Schedule Set Name
  {151637d6-1b16-4482-b01c-946c6fda86a7}, !- Group Rendering Name
  {8eaeff0b-df92-47b7-8d3a-4b4d9ee1130f}, !- Design Specification Outdoor Air Object Name
  SmallHotel,                             !- Standards Building Type
  BlendMisc;                              !- Standards Space Type

OS:Rendering:Color,
  {151637d6-1b16-4482-b01c-946c6fda86a7}, !- Handle
  Rendering Color 3,                      !- Name
  230,                                    !- Rendering Red Value
  157,                                    !- Rendering Green Value
  120;                                    !- Rendering Blue Value

OS:SpaceType,
  {028c9aae-ac86-4804-b9e4-56e3ee591da9}, !- Handle
  SmallHotel|Laundry|DOE Ref 1980-2004|ASHRAE 169-2006-5A, !- Name
  {015f5d27-78cf-474f-9aca-dd027a6d3341}, !- Default Construction Set Name
  {bb02ef0e-3f07-4d42-8bce-f7159ed142f5}, !- Default Schedule Set Name
  {4b965575-b0c3-4abb-ad56-79fab04e083d}, !- Group Rendering Name
  {b57c4329-832f-48f4-b5ea-6c6cc0acafb3}, !- Design Specification Outdoor Air Object Name
  SmallHotel,                             !- Standards Building Type
  Laundry;                                !- Standards Space Type

OS:Rendering:Color,
  {4b965575-b0c3-4abb-ad56-79fab04e083d}, !- Handle
  Rendering Color 4,                      !- Name
  120,                                    !- Rendering Red Value
  149,                                    !- Rendering Green Value
  230;                                    !- Rendering Blue Value

OS:SpaceType,
  {b16a1e93-a453-406c-a5ba-731af5c60da4}, !- Handle
  SmallHotel|Exercise|DOE Ref 1980-2004|ASHRAE 169-2006-5A, !- Name
  {015f5d27-78cf-474f-9aca-dd027a6d3341}, !- Default Construction Set Name
  {aa9cbb13-a799-4e2e-abaf-a669d9edab86}, !- Default Schedule Set Name
  {6b7b4a8a-b446-4514-b184-9d4eebb35e81}, !- Group Rendering Name
  {4c51b616-9fb2-43f6-97e3-c79966749283}, !- Design Specification Outdoor Air Object Name
  SmallHotel,                             !- Standards Building Type
  Exercise;                               !- Standards Space Type

OS:Rendering:Color,
  {6b7b4a8a-b446-4514-b184-9d4eebb35e81}, !- Handle
  Rendering Color 5,                      !- Name
  154,                                    !- Rendering Red Value
  230,                                    !- Rendering Green Value
  120;                                    !- Rendering Blue Value

OS:Schedule:Ruleset,
  {2a842292-bdf5-489f-bbe8-80e370a946e9}, !- Handle
  0600|2200|SmallHotel|default|hoo,       !- Name
  {0c926f75-4cb1-4381-b484-a0053c435453}, !- Schedule Type Limits Name
  {36891607-31cd-4cd0-abd5-976607911727}, !- Default Day Schedule Name
  {9c5cb8b2-53b6-42e4-ae54-c5dcd49c38ee}, !- Summer Design Day Schedule Name
  {17faeabb-3ff1-4ad9-9ba0-88a300259bb4}; !- Winter Design Day Schedule Name

OS:Schedule:Day,
  {36891607-31cd-4cd0-abd5-976607911727}, !- Handle
  0600|2200|SmallHotel|default|hoo Schedule Week Day, !- Name
  {0c926f75-4cb1-4381-b484-a0053c435453}, !- Schedule Type Limits Name
  ,                                       !- Interpolate to Timestep
  6,                                      !- Hour 1
  0,                                      !- Minute 1
  0,                                      !- Value Until Time 1
  22,                                     !- Hour 2
  0,                                      !- Minute 2
  1,                                      !- Value Until Time 2
  24,                                     !- Hour 3
  0,                                      !- Minute 3
  0;                                      !- Value Until Time 3

OS:Schedule:Day,
  {53ca75cc-aa15-474e-a573-d9fcae08d622}, !- Handle
  Schedule Day 2,                         !- Name
  ,                                       !- Schedule Type Limits Name
  ,                                       !- Interpolate to Timestep
  24,                                     !- Hour 1
  0,                                      !- Minute 1
  0;                                      !- Value Until Time 1

OS:Schedule:Day,
  {17faeabb-3ff1-4ad9-9ba0-88a300259bb4}, !- Handle
  0600|2200|SmallHotel|default|hoo Winter Design Day, !- Name
  {0c926f75-4cb1-4381-b484-a0053c435453}, !- Schedule Type Limits Name
  ,                                       !- Interpolate to Timestep
  24,                                     !- Hour 1
  0,                                      !- Minute 1
  0;                                      !- Value Until Time 1

OS:Schedule:Day,
  {43bc8ebb-fca8-4f15-bfde-39242cbebf04}, !- Handle
  Schedule Day 3,                         !- Name
  ,                                       !- Schedule Type Limits Name
  ,                                       !- Interpolate to Timestep
  24,                                     !- Hour 1
  0,                                      !- Minute 1
  0;                                      !- Value Until Time 1

OS:Schedule:Day,
  {9c5cb8b2-53b6-42e4-ae54-c5dcd49c38ee}, !- Handle
  0600|2200|SmallHotel|default|hoo Summer Design Day, !- Name
  {0c926f75-4cb1-4381-b484-a0053c435453}, !- Schedule Type Limits Name
  ,                                       !- Interpolate to Timestep
  24,                                     !- Hour 1
  0,                                      !- Minute 1
  1;                                      !- Value Until Time 1

OS:DefaultScheduleSet,
  {80319ef6-b97f-4fa4-88ca-2452893785e6}, !- Handle
  Building Hours of Operation,            !- Name
  {2a842292-bdf5-489f-bbe8-80e370a946e9}, !- Hours of Operation Schedule Name
  ,                                       !- Number of People Schedule Name
  ,                                       !- People Activity Level Schedule Name
  ,                                       !- Lighting Schedule Name
  ,                                       !- Electric Equipment Schedule Name
  ,                                       !- Gas Equipment Schedule Name
  ,                                       !- Hot Water Equipment Schedule Name
  ,                                       !- Infiltration Schedule Name
  ,                                       !- Steam Equipment Schedule Name
  ;                                       !- Other Equipment Schedule Name

OS:ScheduleTypeLimits,
  {0c926f75-4cb1-4381-b484-a0053c435453}, !- Handle
  OnOff,                                  !- Name
  0,                                      !- Lower Limit Value {BasedOnField A4}
  1,                                      !- Upper Limit Value {BasedOnField A4}
  Discrete,                               !- Numeric Type
  Availability;                           !- Unit Type

OS:Schedule:Ruleset,
  {33509f9a-ccbc-4385-b473-311325e100c8}, !- Handle
  0600|2200|SmallHotel|default|elevator,  !- Name
  {c2e9a330-f0af-4e42-990a-ecdd9b201bba}, !- Schedule Type Limits Name
  {dd236453-1dd9-4f2a-8299-b6fb0b7f2ef3}, !- Default Day Schedule Name
  {7787f5ec-227e-4f5a-8fa2-4d8ae05caab1}, !- Summer Design Day Schedule Name
  {50d50911-956f-4c66-834d-816d0d81fd28}; !- Winter Design Day Schedule Name

OS:ScheduleTypeLimits,
  {c2e9a330-f0af-4e42-990a-ecdd9b201bba}, !- Handle
  Elevators Schedule Type Limits,         !- Name
  0,                                      !- Lower Limit Value {BasedOnField A4}
  1,                                      !- Upper Limit Value {BasedOnField A4}
  Continuous,                             !- Numeric Type
  Dimensionless;                          !- Unit Type

OS:Schedule:Day,
  {dd236453-1dd9-4f2a-8299-b6fb0b7f2ef3}, !- Handle
  0600|2200|SmallHotel|default|elevator |default, !- Name
  {c2e9a330-f0af-4e42-990a-ecdd9b201bba}, !- Schedule Type Limits Name
  ,                                       !- Interpolate to Timestep
  4,                                      !- Hour 1
  0,                                      !- Minute 1
  0.05,                                   !- Value Until Time 1
  5,                                      !- Hour 2
  0,                                      !- Minute 2
  0.1,                                    !- Value Until Time 2
  6,                                      !- Hour 3
  0,                                      !- Minute 3
  0.2,                                    !- Value Until Time 3
  7,                                      !- Hour 4
  0,                                      !- Minute 4
  0.4,                                    !- Value Until Time 4
  9,                                      !- Hour 5
  0,                                      !- Minute 5
  0.5,                                    !- Value Until Time 5
  10,                                     !- Hour 6
  0,                                      !- Minute 6
  0.35,                                   !- Value Until Time 6
  16,                                     !- Hour 7
  0,                                      !- Minute 7
  0.15,                                   !- Value Until Time 7
  17,                                     !- Hour 8
  0,                                      !- Minute 8
  0.35,                                   !- Value Until Time 8
  19,                                     !- Hour 9
  0,                                      !- Minute 9
  0.5,                                    !- Value Until Time 9
  21,                                     !- Hour 10
  0,                                      !- Minute 10
  0.4,                                    !- Value Until Time 10
  22,                                     !- Hour 11
  0,                                      !- Minute 11
  0.3,                                    !- Value Until Time 11
  23,                                     !- Hour 12
  0,                                      !- Minute 12
  0.2,                                    !- Value Until Time 12
  24,                                     !- Hour 13
  0,                                      !- Minute 13
  0.1;                                    !- Value Until Time 13

OS:Schedule:Day,
  {7787f5ec-227e-4f5a-8fa2-4d8ae05caab1}, !- Handle
  0600|2200|SmallHotel|default|elevator Summer Design Day, !- Name
  {c2e9a330-f0af-4e42-990a-ecdd9b201bba}, !- Schedule Type Limits Name
  ,                                       !- Interpolate to Timestep
  4,                                      !- Hour 1
  0,                                      !- Minute 1
  0.05,                                   !- Value Until Time 1
  5,                                      !- Hour 2
  0,                                      !- Minute 2
  0.1,                                    !- Value Until Time 2
  6,                                      !- Hour 3
  0,                                      !- Minute 3
  0.2,                                    !- Value Until Time 3
  7,                                      !- Hour 4
  0,                                      !- Minute 4
  0.4,                                    !- Value Until Time 4
  9,                                      !- Hour 5
  0,                                      !- Minute 5
  0.5,                                    !- Value Until Time 5
  10,                                     !- Hour 6
  0,                                      !- Minute 6
  0.35,                                   !- Value Until Time 6
  16,                                     !- Hour 7
  0,                                      !- Minute 7
  0.15,                                   !- Value Until Time 7
  17,                                     !- Hour 8
  0,                                      !- Minute 8
  0.35,                                   !- Value Until Time 8
  19,                                     !- Hour 9
  0,                                      !- Minute 9
  0.5,                                    !- Value Until Time 9
  21,                                     !- Hour 10
  0,                                      !- Minute 10
  0.4,                                    !- Value Until Time 10
  22,                                     !- Hour 11
  0,                                      !- Minute 11
  0.3,                                    !- Value Until Time 11
  23,                                     !- Hour 12
  0,                                      !- Minute 12
  0.2,                                    !- Value Until Time 12
  24,                                     !- Hour 13
  0,                                      !- Minute 13
  0.1;                                    !- Value Until Time 13

OS:Schedule:Day,
  {50d50911-956f-4c66-834d-816d0d81fd28}, !- Handle
  0600|2200|SmallHotel|default|elevator Winter Design Day, !- Name
  {c2e9a330-f0af-4e42-990a-ecdd9b201bba}, !- Schedule Type Limits Name
  ,                                       !- Interpolate to Timestep
  4,                                      !- Hour 1
  0,                                      !- Minute 1
  0.05,                                   !- Value Until Time 1
  5,                                      !- Hour 2
  0,                                      !- Minute 2
  0.1,                                    !- Value Until Time 2
  6,                                      !- Hour 3
  0,                                      !- Minute 3
  0.2,                                    !- Value Until Time 3
  7,                                      !- Hour 4
  0,                                      !- Minute 4
  0.4,                                    !- Value Until Time 4
  9,                                      !- Hour 5
  0,                                      !- Minute 5
  0.5,                                    !- Value Until Time 5
  10,                                     !- Hour 6
  0,                                      !- Minute 6
  0.35,                                   !- Value Until Time 6
  16,                                     !- Hour 7
  0,                                      !- Minute 7
  0.15,                                   !- Value Until Time 7
  17,                                     !- Hour 8
  0,                                      !- Minute 8
  0.35,                                   !- Value Until Time 8
  19,                                     !- Hour 9
  0,                                      !- Minute 9
  0.5,                                    !- Value Until Time 9
  21,                                     !- Hour 10
  0,                                      !- Minute 10
  0.4,                                    !- Value Until Time 10
  22,                                     !- Hour 11
  0,                                      !- Minute 11
  0.3,                                    !- Value Until Time 11
  23,                                     !- Hour 12
  0,                                      !- Minute 12
  0.2,                                    !- Value Until Time 12
  24,                                     !- Hour 13
  0,                                      !- Minute 13
  0.1;                                    !- Value Until Time 13

OS:Schedule:Ruleset,
  {30a965ec-0064-4b21-9f02-829ba06c50d3}, !- Handle
  0600|2200|SmallHotel|Storage|lighting,  !- Name
  {4684fb18-8f92-48ef-a70e-7a8881daf23f}, !- Schedule Type Limits Name
  {feb82c28-364a-4654-88df-f7d9631e5217}, !- Default Day Schedule Name
  {af87b041-2090-49f2-adca-a276ce1988c1}, !- Summer Design Day Schedule Name
  {8a217850-308b-4f89-8725-faac0584a982}; !- Winter Design Day Schedule Name

OS:ScheduleTypeLimits,
  {4684fb18-8f92-48ef-a70e-7a8881daf23f}, !- Handle
  Lights Schedule Type Limits,            !- Name
  0,                                      !- Lower Limit Value {BasedOnField A4}
  1,                                      !- Upper Limit Value {BasedOnField A4}
  Continuous,                             !- Numeric Type
  Dimensionless;                          !- Unit Type

OS:Schedule:Day,
  {feb82c28-364a-4654-88df-f7d9631e5217}, !- Handle
  0600|2200|SmallHotel|Storage|lighting |default, !- Name
  {4684fb18-8f92-48ef-a70e-7a8881daf23f}, !- Schedule Type Limits Name
  ,                                       !- Interpolate to Timestep
  7,                                      !- Hour 1
  0,                                      !- Minute 1
  0.1,                                    !- Value Until Time 1
  8,                                      !- Hour 2
  0,                                      !- Minute 2
  0.2,                                    !- Value Until Time 2
  18,                                     !- Hour 3
  0,                                      !- Minute 3
  0.4,                                    !- Value Until Time 3
  22,                                     !- Hour 4
  0,                                      !- Minute 4
  0.2,                                    !- Value Until Time 4
  24,                                     !- Hour 5
  0,                                      !- Minute 5
  0.1;                                    !- Value Until Time 5

OS:Schedule:Day,
  {af87b041-2090-49f2-adca-a276ce1988c1}, !- Handle
  0600|2200|SmallHotel|Storage|lighting Summer Design Day, !- Name
  {4684fb18-8f92-48ef-a70e-7a8881daf23f}, !- Schedule Type Limits Name
  ,                                       !- Interpolate to Timestep
  7,                                      !- Hour 1
  0,                                      !- Minute 1
  0.1,                                    !- Value Until Time 1
  8,                                      !- Hour 2
  0,                                      !- Minute 2
  0.2,                                    !- Value Until Time 2
  18,                                     !- Hour 3
  0,                                      !- Minute 3
  1,                                      !- Value Until Time 3
  22,                                     !- Hour 4
  0,                                      !- Minute 4
  0.2,                                    !- Value Until Time 4
  24,                                     !- Hour 5
  0,                                      !- Minute 5
  0.1;                                    !- Value Until Time 5

OS:Schedule:Day,
  {8a217850-308b-4f89-8725-faac0584a982}, !- Handle
  0600|2200|SmallHotel|Storage|lighting Winter Design Day, !- Name
  {4684fb18-8f92-48ef-a70e-7a8881daf23f}, !- Schedule Type Limits Name
  ,                                       !- Interpolate to Timestep
  24,                                     !- Hour 1
  0,                                      !- Minute 1
  0.1;                                    !- Value Until Time 1

OS:Schedule:Ruleset,
  {67ebb235-8223-48f6-b8ea-563c26d9cdcb}, !- Handle
  0600|2200|SmallHotel|default|lighting,  !- Name
  {4684fb18-8f92-48ef-a70e-7a8881daf23f}, !- Schedule Type Limits Name
  {43c7fd19-1286-4769-8c71-e8f740b86ca6}, !- Default Day Schedule Name
  {88dae96c-7d04-42cc-8d4e-d4abc48a55de}, !- Summer Design Day Schedule Name
  {ed448209-0cf0-45d6-9e89-c6d57d61bf22}; !- Winter Design Day Schedule Name

OS:Schedule:Day,
  {43c7fd19-1286-4769-8c71-e8f740b86ca6}, !- Handle
  0600|2200|SmallHotel|default|lighting |default, !- Name
  {4684fb18-8f92-48ef-a70e-7a8881daf23f}, !- Schedule Type Limits Name
  ,                                       !- Interpolate to Timestep
  1,                                      !- Hour 1
  0,                                      !- Minute 1
  0.2,                                    !- Value Until Time 1
  2,                                      !- Hour 2
  0,                                      !- Minute 2
  0.15,                                   !- Value Until Time 2
  5,                                      !- Hour 3
  0,                                      !- Minute 3
  0.1,                                    !- Value Until Time 3
  6,                                      !- Hour 4
  0,                                      !- Minute 4
  0.2,                                    !- Value Until Time 4
  7,                                      !- Hour 5
  0,                                      !- Minute 5
  0.4,                                    !- Value Until Time 5
  8,                                      !- Hour 6
  0,                                      !- Minute 6
  0.5,                                    !- Value Until Time 6
  10,                                     !- Hour 7
  0,                                      !- Minute 7
  0.4,                                    !- Value Until Time 7
  18,                                     !- Hour 8
  0,                                      !- Minute 8
  0.25,                                   !- Value Until Time 8
  19,                                     !- Hour 9