
OS:Version,
  {dfe86e9e-98c0-4fe3-b621-a54322b48366}, !- Handle
  1.5.5;                                  !- Version Identifier

OS:ClimateZones,
  {135edfab-17e7-40db-a436-27d385a8cd6d}, !- Handle
  ,                                       !- Active Institution
  ,                                       !- Active Year
  ASHRAE,                                 !- Climate Zone Institution Name 1
  ANSI/ASHRAE Standard 169,               !- Climate Zone Document Name 1
  2006,                                   !- Climate Zone Document Year 1
  ,                                       !- Climate Zone Value 1
  CEC,                                    !- Climate Zone Institution Name 2
  California Climate Zone Descriptions,   !- Climate Zone Document Name 2
  1995,                                   !- Climate Zone Document Year 2
  ;                                       !- Climate Zone Value 2

OS:YearDescription,
  {513d8dda-86cb-442a-b01c-1f7f0e0ac70e}; !- Handle

OS:RadianceParameters,
  {270a96f1-3c86-4b75-a667-cdf22790e2c8}, !- Handle
  1,                                      !- Accumulated Rays per Record
  0,                                      !- Direct Threshold
  1,                                      !- Direct Certainty
  1,                                      !- Direct Jitter
  1,                                      !- Direct Pretest
  6,                                      !- Ambient Bounces VMX
  2,                                      !- Ambient Bounces DMX
  4050,                                   !- Ambient Divisions VMX
  512,                                    !- Ambient Divisions DMX
  256,                                    !- Ambient Supersamples
  0.001,                                  !- Limit Weight VMX
  0.001,                                  !- Limit Weight DMX
  500,                                    !- Klems Sampling Density
  146;                                    !- Sky Discretization Resolution

OS:SimulationControl,
  {2c487a4c-bac9-4ac5-b669-1e49d9da7c2b}, !- Handle
  ,                                       !- Do Zone Sizing Calculation
  ,                                       !- Do System Sizing Calculation
  ,                                       !- Do Plant Sizing Calculation
  No,                                     !- Run Simulation for Sizing Periods
  ,                                       !- Run Simulation for Weather File Run Periods
  0.04,                                   !- Loads Convergence Tolerance Value
  ,                                       !- Temperature Convergence Tolerance Value {deltaC}
  ,                                       !- Solar Distribution
  ,                                       !- Maximum Number of Warmup Days
  2;                                      !- Minimum Number of Warmup Days

OS:Sizing:Parameters,
  {dde5af6f-7923-4600-a28a-7556673a0266}, !- Handle
  1.25,                                   !- Heating Sizing Factor
  1.15;                                   !- Cooling Sizing Factor

OS:ProgramControl,
  {05027a99-f2b3-4aeb-afc6-1425fbb4371d}; !- Handle

OS:Timestep,
  {4ebc9f1e-4707-402e-9844-67eb1ffbd522}, !- Handle
  2;                                      !- Number of Timesteps per Hour

OS:OutputControl:ReportingTolerances,
  {65797aa2-06a9-45fe-b69d-bc6e060399d3}; !- Handle

OS:ConvergenceLimits,
  {9fc11aba-8822-4f3d-970c-46391ba4040d}; !- Handle

OS:ShadowCalculation,
  {ca758bea-4416-4626-9bba-3d8795c79bd6}, !- Handle
  7,                                      !- Calculation Frequency
  15000;                                  !- Maximum Figures in Shadow Overlap Calculations

OS:SurfaceConvectionAlgorithm:Inside,
  {aaabfc36-718a-4ab0-b622-f186ebb45230}, !- Handle
  TARP;                                   !- Algorithm

OS:SurfaceConvectionAlgorithm:Outside,
  {9a0a9f6f-4bbd-4b12-a121-9492a1fcd7d6}, !- Handle
  DOE-2;                                  !- Algorithm

OS:HeatBalanceAlgorithm,
  {9d93e563-e1e0-46d7-9e39-d1c8aceb7212}, !- Handle
  ConductionTransferFunction,             !- Algorithm
  200;                                    !- Surface Temperature Upper Limit {F}

OS:ZoneAirHeatBalanceAlgorithm,
  {8520d93e-310f-4696-9bcd-36228bfdd743}, !- Handle
  AnalyticalSolution;                     !- Algorithm

OS:ZoneAirContaminantBalance,
  {eb5fc3ae-fb22-4160-8fcb-3e3b22b000d3}; !- Handle

OS:ZoneCapacitanceMultiplier:ResearchSpecial,
  {4020ce4f-5a7a-4849-8028-8305d7b751b1}, !- Handle
  ,                                       !- Temperature Capacity Multiplier
  ,                                       !- Humidity Capacity Multiplier
  ;                                       !- Carbon Dioxide Capacity Multiplier

OS:RunPeriod,
  {28df894d-6af9-4fb8-8f56-df1753344aa3}, !- Handle
  Run Period 1,                           !- Name
  1,                                      !- Begin Month
  1,                                      !- Begin Day of Month
  12,                                     !- End Month
  31,                                     !- End Day of Month
  ,                                       !- Use Weather File Holidays and Special Days
  ,                                       !- Use Weather File Daylight Saving Period
  ,                                       !- Apply Weekend Holiday Rule
  ,                                       !- Use Weather File Rain Indicators
  ,                                       !- Use Weather File Snow Indicators
  ;                                       !- Number of Times Runperiod to be Repeated

OS:Building,
  {bf305633-c5a1-4881-9edf-ca5e1a8e1274}, !- Handle
  Building 1,                             !- Name
  ,                                       !- Building Sector Type
  ,                                       !- North Axis {deg}
  ,                                       !- Nominal Floor to Floor Height {m}
  ,                                       !- Space Type Name
  ,                                       !- Default Construction Set Name
  {0c22d210-fcff-4298-bf09-508073ff0d97}, !- Default Schedule Set Name
  ,                                       !- Standards Number of Stories
  ,                                       !- Standards Number of Above Ground Stories
  SmallHotel;                             !- Standards Building Type

OS:LifeCycleCost:Parameters,
  {231cf8a0-f0e7-4251-a99f-11f0d464e661}, !- Handle
  FEMP,                                   !- Analysis Type
  ,                                       !- Discounting Convention
  ,                                       !- Inflation Approach
  ,                                       !- Real Discount Rate
  ,                                       !- Nominal Discount Rate
  ,                                       !- Inflation
  ,                                       !- Base Date Month
  ,                                       !- Base Date Year
  ,                                       !- Service Date Month
  ,                                       !- Service Date Year
  ,                                       !- Length of Study Period in Years
  ,                                       !- Tax Rate
  ,                                       !- Depreciation Method
  Yes;                                    !- Use NIST Fuel Escalation Rates

OS:Facility,
  {3ba8e45b-b833-44eb-a723-ea6c3946dc96}; !- Handle

OS:SpaceType,
  {e3283112-7039-4692-84d6-f168f60d2839}, !- Handle
  SmallHotel|BlendGuest|DOE Ref 2004|ASHRAE 169-2006-5A, !- Name
  {5673aebe-989a-4801-bfe5-26bfc89504b4}, !- Default Construction Set Name
  ,                                       !- Default Schedule Set Name
  {09b60706-e485-45e8-827a-5e5b6af09ed5}, !- Group Rendering Name
  {f7835318-74c5-412a-9117-6e8f618f2e34}, !- Design Specification Outdoor Air Object Name
  SmallHotel,                             !- Standards Building Type
  BlendGuest;                             !- Standards Space Type

OS:Rendering:Color,
  {09b60706-e485-45e8-827a-5e5b6af09ed5}, !- Handle
  Rendering Color 1,                      !- Name
  78,                                     !- Rendering Red Value
  167,                                    !- Rendering Green Value
  222;                                    !- Rendering Blue Value

OS:SpaceType,
  {2f1db399-027c-48ad-b7d6-1b63533ef02d}, !- Handle
  SmallHotel|BlendMtg|DOE Ref 2004|ASHRAE 169-2006-5A, !- Name
  {5673aebe-989a-4801-bfe5-26bfc89504b4}, !- Default Construction Set Name
  ,                                       !- Default Schedule Set Name
  {95f5a290-dd8a-44cd-bbff-4d90bd8ea126}, !- Group Rendering Name
  {f9804776-9a43-47ea-a963-4913af661a5e}, !- Design Specification Outdoor Air Object Name
  SmallHotel,                             !- Standards Building Type
  BlendMtg;                               !- Standards Space Type

OS:Rendering:Color,
  {95f5a290-dd8a-44cd-bbff-4d90bd8ea126}, !- Handle
  Rendering Color 2,                      !- Name
  120,                                    !- Rendering Red Value
  230,                                    !- Rendering Green Value
  199;                                    !- Rendering Blue Value

OS:SpaceType,
  {9e0fb836-bb69-44d8-bef7-c37bcc006d1a}, !- Handle
  SmallHotel|BlendMisc|DOE Ref 2004|ASHRAE 169-2006-5A, !- Name
  {5673aebe-989a-4801-bfe5-26bfc89504b4}, !- Default Construction Set Name
  ,                                       !- Default Schedule Set Name
  {89e3e7bf-be46-4eaf-b9d8-ab6231441ef4}, !- Group Rendering Name
  {6dde31c9-98cb-4d4f-9443-57f86d21347c}, !- Design Specification Outdoor Air Object Name
  SmallHotel,                             !- Standards Building Type
  BlendMisc;                              !- Standards Space Type

OS:Rendering:Color,
  {89e3e7bf-be46-4eaf-b9d8-ab6231441ef4}, !- Handle
  Rendering Color 3,                      !- Name
  230,                                    !- Rendering Red Value
  157,                                    !- Rendering Green Value
  120;                                    !- Rendering Blue Value

OS:SpaceType,
  {eb66b3d7-fa8e-417e-a648-d804ff792239}, !- Handle
  SmallHotel|Laundry|DOE Ref 2004|ASHRAE 169-2006-5A, !- Name
  {5673aebe-989a-4801-bfe5-26bfc89504b4}, !- Default Construction Set Name
  {75beb8ab-073d-41de-b917-52aadc360e3b}, !- Default Schedule Set Name
  {d8e66977-ca73-4b30-bbd2-c0fa4e626880}, !- Group Rendering Name
  {b9889d9d-dacf-42dc-b097-d670327a2ea6}, !- Design Specification Outdoor Air Object Name
  SmallHotel,                             !- Standards Building Type
  Laundry;                                !- Standards Space Type

OS:Rendering:Color,
  {d8e66977-ca73-4b30-bbd2-c0fa4e626880}, !- Handle
  Rendering Color 4,                      !- Name
  120,                                    !- Rendering Red Value
  149,                                    !- Rendering Green Value
  230;                                    !- Rendering Blue Value

OS:SpaceType,
  {3f9e6e21-817f-4f80-8730-22aa43d26b4b}, !- Handle
  SmallHotel|Exercise|DOE Ref 2004|ASHRAE 169-2006-5A, !- Name
  {5673aebe-989a-4801-bfe5-26bfc89504b4}, !- Default Construction Set Name
  {691a8ee8-8bc8-4d5f-8035-51f0087dd339}, !- Default Schedule Set Name
  {3d4c0424-0cc7-4b12-b266-93046e4b8adf}, !- Group Rendering Name
  {ff4e0092-b843-4b91-bfe0-7bc139d3f1a0}, !- Design Specification Outdoor Air Object Name
  SmallHotel,                             !- Standards Building Type
  Exercise;                               !- Standards Space Type

OS:Rendering:Color,
  {3d4c0424-0cc7-4b12-b266-93046e4b8adf}, !- Handle
  Rendering Color 5,                      !- Name
  154,                                    !- Rendering Red Value
  230,                                    !- Rendering Green Value
  120;                                    !- Rendering Blue Value

OS:Schedule:Ruleset,
  {c88ebbba-b4fc-4e09-bf6c-3520132f9601}, !- Handle
  0600|2200|SmallHotel|default|hoo,       !- Name
  {5a3b84f5-07fc-43f4-8db5-b3d4d90f1505}, !- Schedule Type Limits Name
  {49435cf3-a595-4dfa-a02f-97e3273566bb}, !- Default Day Schedule Name
  {360f48f3-54f9-4900-8685-8a24a9f52efa}, !- Summer Design Day Schedule Name
  {c67680b1-6c37-44c0-9351-dc83736c6de3}; !- Winter Design Day Schedule Name

OS:Schedule:Day,
  {49435cf3-a595-4dfa-a02f-97e3273566bb}, !- Handle
  0600|2200|SmallHotel|default|hoo Schedule Week Day, !- Name
  {5a3b84f5-07fc-43f4-8db5-b3d4d90f1505}, !- Schedule Type Limits Name
  ,                                       !- Interpolate to Timestep
  6,                                      !- Hour 1
  0,                                      !- Minute 1
  0,                                      !- Value Until Time 1
  22,                                     !- Hour 2
  0,                                      !- Minute 2
  1,                                      !- Value Until Time 2
  24,                                     !- Hour 3
  0,                                      !- Minute 3
  0;                                      !- Value Until Time 3

OS:Schedule:Day,
  {6d43e6e0-9a2b-4fb1-bcdc-5134787582f1}, !- Handle
  Schedule Day 2,                         !- Name
  ,                                       !- Schedule Type Limits Name
  ,                                       !- Interpolate to Timestep
  24,                                     !- Hour 1
  0,                                      !- Minute 1
  0;                                      !- Value Until Time 1

OS:Schedule:Day,
  {c67680b1-6c37-44c0-9351-dc83736c6de3}, !- Handle
  0600|2200|SmallHotel|default|hoo Winter Design Day, !- Name
  {5a3b84f5-07fc-43f4-8db5-b3d4d90f1505}, !- Schedule Type Limits Name
  ,                                       !- Interpolate to Timestep
  24,                                     !- Hour 1
  0,                                      !- Minute 1
  0;                                      !- Value Until Time 1

OS:Schedule:Day,
  {62c7e6a8-337f-4ae1-adf8-fc60e6f8dfc6}, !- Handle
  Schedule Day 3,                         !- Name
  ,                                       !- Schedule Type Limits Name
  ,                                       !- Interpolate to Timestep
  24,                                     !- Hour 1
  0,                                      !- Minute 1
  0;                                      !- Value Until Time 1

OS:Schedule:Day,
  {360f48f3-54f9-4900-8685-8a24a9f52efa}, !- Handle
  0600|2200|SmallHotel|default|hoo Summer Design Day, !- Name
  {5a3b84f5-07fc-43f4-8db5-b3d4d90f1505}, !- Schedule Type Limits Name
  ,                                       !- Interpolate to Timestep
  24,                                     !- Hour 1
  0,                                      !- Minute 1
  1;                                      !- Value Until Time 1

OS:DefaultScheduleSet,
  {0c22d210-fcff-4298-bf09-508073ff0d97}, !- Handle
  Building Hours of Operation,            !- Name
  {c88ebbba-b4fc-4e09-bf6c-3520132f9601}, !- Hours of Operation Schedule Name
  ,                                       !- Number of People Schedule Name
  ,                                       !- People Activity Level Schedule Name
  ,                                       !- Lighting Schedule Name
  ,                                       !- Electric Equipment Schedule Name
  ,                                       !- Gas Equipment Schedule Name
  ,                                       !- Hot Water Equipment Schedule Name
  ,                                       !- Infiltration Schedule Name
  ,                                       !- Steam Equipment Schedule Name
  ;                                       !- Other Equipment Schedule Name

OS:ScheduleTypeLimits,
  {5a3b84f5-07fc-43f4-8db5-b3d4d90f1505}, !- Handle
  OnOff,                                  !- Name
  0,                                      !- Lower Limit Value {BasedOnField A4}
  1,                                      !- Upper Limit Value {BasedOnField A4}
  Discrete,                               !- Numeric Type
  Availability;                           !- Unit Type

OS:Schedule:Ruleset,
  {9cfa9af2-b354-41eb-84cf-471888dfa71c}, !- Handle
  0600|2200|SmallHotel|default|elevator,  !- Name
  {380d8ab7-062e-45af-bd1b-11397d00693c}, !- Schedule Type Limits Name
  {a781adaf-73be-455f-b4fa-48aa327ac6d4}, !- Default Day Schedule Name
  {1997752a-acb0-4b3f-b96f-99c9162d8a6c}, !- Summer Design Day Schedule Name
  {8079c84c-7dc4-4037-8716-be328960e12b}; !- Winter Design Day Schedule Name

OS:ScheduleTypeLimits,
  {380d8ab7-062e-45af-bd1b-11397d00693c}, !- Handle
  Elevators Schedule Type Limits,         !- Name
  0,                                      !- Lower Limit Value {BasedOnField A4}
  1,                                      !- Upper Limit Value {BasedOnField A4}
  Continuous,                             !- Numeric Type
  Dimensionless;                          !- Unit Type

OS:Schedule:Day,
  {a781adaf-73be-455f-b4fa-48aa327ac6d4}, !- Handle
  0600|2200|SmallHotel|default|elevator |default, !- Name
  {380d8ab7-062e-45af-bd1b-11397d00693c}, !- Schedule Type Limits Name
  ,                                       !- Interpolate to Timestep
  4,                                      !- Hour 1
  0,                                      !- Minute 1
  0.05,                                   !- Value Until Time 1
  5,                                      !- Hour 2
  0,                                      !- Minute 2
  0.1,                                    !- Value Until Time 2
  6,                                      !- Hour 3
  0,                                      !- Minute 3
  0.2,                                    !- Value Until Time 3
  7,                                      !- Hour 4
  0,                                      !- Minute 4
  0.4,                                    !- Value Until Time 4
  9,                                      !- Hour 5
  0,                                      !- Minute 5
  0.5,                                    !- Value Until Time 5
  10,                                     !- Hour 6
  0,                                      !- Minute 6
  0.35,                                   !- Value Until Time 6
  16,                                     !- Hour 7
  0,                                      !- Minute 7
  0.15,                                   !- Value Until Time 7
  17,                                     !- Hour 8
  0,                                      !- Minute 8
  0.35,                                   !- Value Until Time 8
  19,                                     !- Hour 9
  0,                                      !- Minute 9
  0.5,                                    !- Value Until Time 9
  21,                                     !- Hour 10
  0,                                      !- Minute 10
  0.4,                                    !- Value Until Time 10
  22,                                     !- Hour 11
  0,                                      !- Minute 11
  0.3,                                    !- Value Until Time 11
  23,                                     !- Hour 12
  0,                                      !- Minute 12
  0.2,                                    !- Value Until Time 12
  24,                                     !- Hour 13
  0,                                      !- Minute 13
  0.1;                                    !- Value Until Time 13

OS:Schedule:Day,
  {1997752a-acb0-4b3f-b96f-99c9162d8a6c}, !- Handle
  0600|2200|SmallHotel|default|elevator Summer Design Day, !- Name
  {380d8ab7-062e-45af-bd1b-11397d00693c}, !- Schedule Type Limits Name
  ,                                       !- Interpolate to Timestep
  4,                                      !- Hour 1
  0,                                      !- Minute 1
  0.05,                                   !- Value Until Time 1
  5,                                      !- Hour 2
  0,                                      !- Minute 2
  0.1,                                    !- Value Until Time 2
  6,                                      !- Hour 3
  0,                                      !- Minute 3
  0.2,                                    !- Value Until Time 3
  7,                                      !- Hour 4
  0,                                      !- Minute 4
  0.4,                                    !- Value Until Time 4
  9,                                      !- Hour 5
  0,                                      !- Minute 5
  0.5,                                    !- Value Until Time 5
  10,                                     !- Hour 6
  0,                                      !- Minute 6
  0.35,                                   !- Value Until Time 6
  16,                                     !- Hour 7
  0,                                      !- Minute 7
  0.15,                                   !- Value Until Time 7
  17,                                     !- Hour 8
  0,                                      !- Minute 8
  0.35,                                   !- Value Until Time 8
  19,                                     !- Hour 9
  0,                                      !- Minute 9
  0.5,                                    !- Value Until Time 9
  21,                                     !- Hour 10
  0,                                      !- Minute 10
  0.4,                                    !- Value Until Time 10
  22,                                     !- Hour 11
  0,                                      !- Minute 11
  0.3,                                    !- Value Until Time 11
  23,                                     !- Hour 12
  0,                                      !- Minute 12
  0.2,                                    !- Value Until Time 12
  24,                                     !- Hour 13
  0,                                      !- Minute 13
  0.1;                                    !- Value Until Time 13

OS:Schedule:Day,
  {8079c84c-7dc4-4037-8716-be328960e12b}, !- Handle
  0600|2200|SmallHotel|default|elevator Winter Design Day, !- Name
  {380d8ab7-062e-45af-bd1b-11397d00693c}, !- Schedule Type Limits Name
  ,                                       !- Interpolate to Timestep
  4,                                      !- Hour 1
  0,                                      !- Minute 1
  0.05,                                   !- Value Until Time 1
  5,                                      !- Hour 2
  0,                                      !- Minute 2
  0.1,                                    !- Value Until Time 2
  6,                                      !- Hour 3
  0,                                      !- Minute 3
  0.2,                                    !- Value Until Time 3
  7,                                      !- Hour 4
  0,                                      !- Minute 4
  0.4,                                    !- Value Until Time 4
  9,                                      !- Hour 5
  0,                                      !- Minute 5
  0.5,                                    !- Value Until Time 5
  10,                                     !- Hour 6
  0,                                      !- Minute 6
  0.35,                                   !- Value Until Time 6
  16,                                     !- Hour 7
  0,                                      !- Minute 7
  0.15,                                   !- Value Until Time 7
  17,                                     !- Hour 8
  0,                                      !- Minute 8
  0.35,                                   !- Value Until Time 8
  19,                                     !- Hour 9
  0,                                      !- Minute 9
  0.5,                                    !- Value Until Time 9
  21,                                     !- Hour 10
  0,                                      !- Minute 10
  0.4,                                    !- Value Until Time 10
  22,                                     !- Hour 11
  0,                                      !- Minute 11
  0.3,                                    !- Value Until Time 11
  23,                                     !- Hour 12
  0,                                      !- Minute 12
  0.2,                                    !- Value Until Time 12
  24,                                     !- Hour 13
  0,                                      !- Minute 13
  0.1;                                    !- Value Until Time 13

OS:Schedule:Ruleset,
  {8337cb6b-5ebd-4a3d-a200-b9496329ab93}, !- Handle
  0600|2200|SmallHotel|Storage|lighting,  !- Name
  {bad9c1ad-8c03-4126-bd9f-dbddc2cb2863}, !- Schedule Type Limits Name
  {3d7ac3fa-253a-4d36-9e8c-62806dcf896f}, !- Default Day Schedule Name
  {d029891e-290b-407e-8527-701e43f312d3}, !- Summer Design Day Schedule Name
  {7f94e525-7c63-4cbf-868a-db0783c3d52d}; !- Winter Design Day Schedule Name

OS:ScheduleTypeLimits,
  {bad9c1ad-8c03-4126-bd9f-dbddc2cb2863}, !- Handle
  Lights Schedule Type Limits,            !- Name
  0,                                      !- Lower Limit Value {BasedOnField A4}
  1,                                      !- Upper Limit Value {BasedOnField A4}
  Continuous,                             !- Numeric Type
  Dimensionless;                          !- Unit Type

OS:Schedule:Day,
  {3d7ac3fa-253a-4d36-9e8c-62806dcf896f}, !- Handle
  0600|2200|SmallHotel|Storage|lighting |default, !- Name
  {bad9c1ad-8c03-4126-bd9f-dbddc2cb2863}, !- Schedule Type Limits Name
  ,                                       !- Interpolate to Timestep
  7,                                      !- Hour 1
  0,                                      !- Minute 1
  0.1,                                    !- Value Until Time 1
  8,                                      !- Hour 2
  0,                                      !- Minute 2
  0.2,                                    !- Value Until Time 2
  18,                                     !- Hour 3
  0,                                      !- Minute 3
  0.4,                                    !- Value Until Time 3
  22,                                     !- Hour 4
  0,                                      !- Minute 4
  0.2,                                    !- Value Until Time 4
  24,                                     !- Hour 5
  0,                                      !- Minute 5
  0.1;                                    !- Value Until Time 5

OS:Schedule:Day,
  {d029891e-290b-407e-8527-701e43f312d3}, !- Handle
  0600|2200|SmallHotel|Storage|lighting Summer Design Day, !- Name
  {bad9c1ad-8c03-4126-bd9f-dbddc2cb2863}, !- Schedule Type Limits Name
  ,                                       !- Interpolate to Timestep
  7,                                      !- Hour 1
  0,                                      !- Minute 1
  0.1,                                    !- Value Until Time 1
  8,                                      !- Hour 2
  0,                                      !- Minute 2
  0.2,                                    !- Value Until Time 2
  18,                                     !- Hour 3
  0,                                      !- Minute 3
  1,                                      !- Value Until Time 3
  22,                                     !- Hour 4
  0,                                      !- Minute 4
  0.2,                                    !- Value Until Time 4
  24,                                     !- Hour 5
  0,                                      !- Minute 5
  0.1;                                    !- Value Until Time 5

OS:Schedule:Day,
  {7f94e525-7c63-4cbf-868a-db0783c3d52d}, !- Handle
  0600|2200|SmallHotel|Storage|lighting Winter Design Day, !- Name
  {bad9c1ad-8c03-4126-bd9f-dbddc2cb2863}, !- Schedule Type Limits Name
  ,                                       !- Interpolate to Timestep
  24,                                     !- Hour 1
  0,                                      !- Minute 1
  0.1;                                    !- Value Until Time 1

OS:Schedule:Ruleset,
  {da2a7b2d-af34-46c7-a8f0-a597a501eea8}, !- Handle
  0600|2200|SmallHotel|default|lighting,  !- Name
  {bad9c1ad-8c03-4126-bd9f-dbddc2cb2863}, !- Schedule Type Limits Name
  {33c436a9-3942-4a0d-93e3-83b3d2d9f59b}, !- Default Day Schedule Name
  {55a5f221-5207-4dff-aa77-fb776ee5b54a}, !- Summer Design Day Schedule Name
  {d49445bd-49ee-4da5-9375-d2b0b2a7bab6}; !- Winter Design Day Schedule Name

OS:Schedule:Day,
  {33c436a9-3942-4a0d-93e3-83b3d2d9f59b}, !- Handle
  0600|2200|SmallHotel|default|lighting |default, !- Name
  {bad9c1ad-8c03-4126-bd9f-dbddc2cb2863}, !- Schedule Type Limits Name
  ,                                       !- Interpolate to Timestep
  1,                                      !- Hour 1
  0,                                      !- Minute 1
  0.2,                                    !- Value Until Time 1
  2,                                      !- Hour 2
  0,                                      !- Minute 2
  0.15,                                   !- Value Until Time 2
  5,                                      !- Hour 3
  0,                                      !- Minute 3
  0.1,                                    !- Value Until Time 3
  6,                                      !- Hour 4
  0,                                      !- Minute 4
  0.2,                                    !- Value Until Time 4
  7,                                      !- Hour 5
  0,                                      !- Minute 5
  0.4,                                    !- Value Until Time 5
  8,                                      !- Hour 6
  0,                                      !- Minute 6
  0.5,                                    !- Value Until Time 6
  10,                                     !- Hour 7
  0,                                      !- Minute 7
  0.4,                                    !- Value Until Time 7
  18,                                     !- Hour 8
  0,                                      !- Minute 8
  0.25,                                   !- Value Until Time 8
  19,                                     !- Hour 9
  0,                                      !- Minute 9