
OS:Version,
  {31ce672c-a5b9-48d0-b434-6aacae19e4f1}, !- Handle
  1.5.5;                                  !- Version Identifier

OS:ClimateZones,
  {135edfab-17e7-40db-a436-27d385a8cd6d}, !- Handle
  ,                                       !- Active Institution
  ,                                       !- Active Year
  ASHRAE,                                 !- Climate Zone Institution Name 1
  ANSI/ASHRAE Standard 169,               !- Climate Zone Document Name 1
  2006,                                   !- Climate Zone Document Year 1
  ,                                       !- Climate Zone Value 1
  CEC,                                    !- Climate Zone Institution Name 2
  California Climate Zone Descriptions,   !- Climate Zone Document Name 2
  1995,                                   !- Climate Zone Document Year 2
  ;                                       !- Climate Zone Value 2

OS:YearDescription,
  {513d8dda-86cb-442a-b01c-1f7f0e0ac70e}; !- Handle

OS:RadianceParameters,
  {270a96f1-3c86-4b75-a667-cdf22790e2c8}, !- Handle
  1,                                      !- Accumulated Rays per Record
  0,                                      !- Direct Threshold
  1,                                      !- Direct Certainty
  1,                                      !- Direct Jitter
  1,                                      !- Direct Pretest
  6,                                      !- Ambient Bounces VMX
  2,                                      !- Ambient Bounces DMX
  4050,                                   !- Ambient Divisions VMX
  512,                                    !- Ambient Divisions DMX
  256,                                    !- Ambient Supersamples
  0.001,                                  !- Limit Weight VMX
  0.001,                                  !- Limit Weight DMX
  500,                                    !- Klems Sampling Density
  146;                                    !- Sky Discretization Resolution

OS:SimulationControl,
  {2c487a4c-bac9-4ac5-b669-1e49d9da7c2b}, !- Handle
  ,                                       !- Do Zone Sizing Calculation
  ,                                       !- Do System Sizing Calculation
  ,                                       !- Do Plant Sizing Calculation
  No,                                     !- Run Simulation for Sizing Periods
  ,                                       !- Run Simulation for Weather File Run Periods
  0.04,                                   !- Loads Convergence Tolerance Value
  ,                                       !- Temperature Convergence Tolerance Value {deltaC}
  ,                                       !- Solar Distribution
  ,                                       !- Maximum Number of Warmup Days
  2;                                      !- Minimum Number of Warmup Days

OS:Sizing:Parameters,
  {dde5af6f-7923-4600-a28a-7556673a0266}, !- Handle
  1.25,                                   !- Heating Sizing Factor
  1.15;                                   !- Cooling Sizing Factor

OS:ProgramControl,
  {05027a99-f2b3-4aeb-afc6-1425fbb4371d}; !- Handle

OS:Timestep,
  {4ebc9f1e-4707-402e-9844-67eb1ffbd522}, !- Handle
  2;                                      !- Number of Timesteps per Hour

OS:OutputControl:ReportingTolerances,
  {65797aa2-06a9-45fe-b69d-bc6e060399d3}; !- Handle

OS:ConvergenceLimits,
  {9fc11aba-8822-4f3d-970c-46391ba4040d}; !- Handle

OS:ShadowCalculation,
  {ca758bea-4416-4626-9bba-3d8795c79bd6}, !- Handle
  7,                                      !- Calculation Frequency
  15000;                                  !- Maximum Figures in Shadow Overlap Calculations

OS:SurfaceConvectionAlgorithm:Inside,
  {aaabfc36-718a-4ab0-b622-f186ebb45230}, !- Handle
  TARP;                                   !- Algorithm

OS:SurfaceConvectionAlgorithm:Outside,
  {9a0a9f6f-4bbd-4b12-a121-9492a1fcd7d6}, !- Handle
  DOE-2;                                  !- Algorithm

OS:HeatBalanceAlgorithm,
  {9d93e563-e1e0-46d7-9e39-d1c8aceb7212}, !- Handle
  ConductionTransferFunction,             !- Algorithm
  200;                                    !- Surface Temperature Upper Limit {F}

OS:ZoneAirHeatBalanceAlgorithm,
  {8520d93e-310f-4696-9bcd-36228bfdd743}, !- Handle
  AnalyticalSolution;                     !- Algorithm

OS:ZoneAirContaminantBalance,
  {eb5fc3ae-fb22-4160-8fcb-3e3b22b000d3}; !- Handle

OS:ZoneCapacitanceMultiplier:ResearchSpecial,
  {4020ce4f-5a7a-4849-8028-8305d7b751b1}, !- Handle
  ,                                       !- Temperature Capacity Multiplier
  ,                                       !- Humidity Capacity Multiplier
  ;                                       !- Carbon Dioxide Capacity Multiplier

OS:RunPeriod,
  {28df894d-6af9-4fb8-8f56-df1753344aa3}, !- Handle
  Run Period 1,                           !- Name
  1,                                      !- Begin Month
  1,                                      !- Begin Day of Month
  12,                                     !- End Month
  31,                                     !- End Day of Month
  ,                                       !- Use Weather File Holidays and Special Days
  ,                                       !- Use Weather File Daylight Saving Period
  ,                                       !- Apply Weekend Holiday Rule
  ,                                       !- Use Weather File Rain Indicators
  ,                                       !- Use Weather File Snow Indicators
  ;                                       !- Number of Times Runperiod to be Repeated

OS:Building,
  {bf305633-c5a1-4881-9edf-ca5e1a8e1274}, !- Handle
  Building 1,                             !- Name
  ,                                       !- Building Sector Type
  ,                                       !- North Axis {deg}
  ,                                       !- Nominal Floor to Floor Height {m}
  ,                                       !- Space Type Name
  ,                                       !- Default Construction Set Name
  {06c3310d-a411-4a83-83b8-c62cdd004893}, !- Default Schedule Set Name
  ,                                       !- Standards Number of Stories
  ,                                       !- Standards Number of Above Ground Stories
  SmallHotel;                             !- Standards Building Type

OS:LifeCycleCost:Parameters,
  {231cf8a0-f0e7-4251-a99f-11f0d464e661}, !- Handle
  FEMP,                                   !- Analysis Type
  ,                                       !- Discounting Convention
  ,                                       !- Inflation Approach
  ,                                       !- Real Discount Rate
  ,                                       !- Nominal Discount Rate
  ,                                       !- Inflation
  ,                                       !- Base Date Month
  ,                                       !- Base Date Year
  ,                                       !- Service Date Month
  ,                                       !- Service Date Year
  ,                                       !- Length of Study Period in Years
  ,                                       !- Tax Rate
  ,                                       !- Depreciation Method
  Yes;                                    !- Use NIST Fuel Escalation Rates

OS:Facility,
  {3ba8e45b-b833-44eb-a723-ea6c3946dc96}; !- Handle

OS:SpaceType,
  {7511ee48-a01e-43da-8916-56343c25febf}, !- Handle
  SmallHotel|BlendGuest|DOE Ref Pre-1980|ASHRAE 169-2006-5A, !- Name
  {74d83217-86fd-434e-8607-9f0fdf4510f8}, !- Default Construction Set Name
  ,                                       !- Default Schedule Set Name
  {1d6e8f07-c35a-4ef4-a6a3-bd00d33b0a97}, !- Group Rendering Name
  {deea4981-0d03-4f94-a4b2-5d08a7b61c9b}, !- Design Specification Outdoor Air Object Name
  SmallHotel,                             !- Standards Building Type
  BlendGuest;                             !- Standards Space Type

OS:Rendering:Color,
  {1d6e8f07-c35a-4ef4-a6a3-bd00d33b0a97}, !- Handle
  Rendering Color 1,                      !- Name
  78,                                     !- Rendering Red Value
  167,                                    !- Rendering Green Value
  222;                                    !- Rendering Blue Value

OS:SpaceType,
  {fe9b3ed4-cb4a-4ed3-be29-0694943fa9b9}, !- Handle
  SmallHotel|BlendMtg|DOE Ref Pre-1980|ASHRAE 169-2006-5A, !- Name
  {74d83217-86fd-434e-8607-9f0fdf4510f8}, !- Default Construction Set Name
  ,                                       !- Default Schedule Set Name
  {c51db7e0-2d17-4f34-8c95-8adab22f8342}, !- Group Rendering Name
  {00029fcb-57c3-422a-9979-ffdb10ddaefe}, !- Design Specification Outdoor Air Object Name
  SmallHotel,                             !- Standards Building Type
  BlendMtg;                               !- Standards Space Type

OS:Rendering:Color,
  {c51db7e0-2d17-4f34-8c95-8adab22f8342}, !- Handle
  Rendering Color 2,                      !- Name
  120,                                    !- Rendering Red Value
  230,                                    !- Rendering Green Value
  199;                                    !- Rendering Blue Value

OS:SpaceType,
  {3a8e166f-2063-46b9-aa0c-4285b6135909}, !- Handle
  SmallHotel|BlendMisc|DOE Ref Pre-1980|ASHRAE 169-2006-5A, !- Name
  {74d83217-86fd-434e-8607-9f0fdf4510f8}, !- Default Construction Set Name
  ,                                       !- Default Schedule Set Name
  {134e96e4-fe4f-4256-b7ac-0eb827813ed0}, !- Group Rendering Name
  {b0c84582-fce2-461e-88c1-f5750532d8ad}, !- Design Specification Outdoor Air Object Name
  SmallHotel,                             !- Standards Building Type
  BlendMisc;                              !- Standards Space Type

OS:Rendering:Color,
  {134e96e4-fe4f-4256-b7ac-0eb827813ed0}, !- Handle
  Rendering Color 3,                      !- Name
  230,                                    !- Rendering Red Value
  157,                                    !- Rendering Green Value
  120;                                    !- Rendering Blue Value

OS:SpaceType,
  {60ef7ac2-1b25-4206-b855-9269aa8b74b3}, !- Handle
  SmallHotel|Laundry|DOE Ref Pre-1980|ASHRAE 169-2006-5A, !- Name
  {74d83217-86fd-434e-8607-9f0fdf4510f8}, !- Default Construction Set Name
  {9abb3e9d-464c-481a-b6b4-b035d48f555a}, !- Default Schedule Set Name
  {705149ec-666f-45ff-9022-a8ed833fd7c0}, !- Group Rendering Name
  {219f3553-567e-4dbe-a5d3-41fea59aecf8}, !- Design Specification Outdoor Air Object Name
  SmallHotel,                             !- Standards Building Type
  Laundry;                                !- Standards Space Type

OS:Rendering:Color,
  {705149ec-666f-45ff-9022-a8ed833fd7c0}, !- Handle
  Rendering Color 4,                      !- Name
  120,                                    !- Rendering Red Value
  149,                                    !- Rendering Green Value
  230;                                    !- Rendering Blue Value

OS:SpaceType,
  {0747120b-e95d-483f-898c-8d1a78fc9483}, !- Handle
  SmallHotel|Exercise|DOE Ref Pre-1980|ASHRAE 169-2006-5A, !- Name
  {74d83217-86fd-434e-8607-9f0fdf4510f8}, !- Default Construction Set Name
  {d3fd47cc-18ba-4135-b07a-69a6d6ab7066}, !- Default Schedule Set Name
  {f56f426a-2e25-4102-9562-68de09f70d26}, !- Group Rendering Name
  {1add378a-d833-4998-9d40-a5b93bb8aa09}, !- Design Specification Outdoor Air Object Name
  SmallHotel,                             !- Standards Building Type
  Exercise;                               !- Standards Space Type

OS:Rendering:Color,
  {f56f426a-2e25-4102-9562-68de09f70d26}, !- Handle
  Rendering Color 5,                      !- Name
  154,                                    !- Rendering Red Value
  230,                                    !- Rendering Green Value
  120;                                    !- Rendering Blue Value

OS:Schedule:Ruleset,
  {b18330d4-8351-42e2-a719-3fb94ca77f57}, !- Handle
  0600|2200|SmallHotel|default|hoo,       !- Name
  {8f8bc68a-5681-4536-a2c9-423d448da541}, !- Schedule Type Limits Name
  {42cb8a3b-0c98-401a-af9b-1aaa4b5d763a}, !- Default Day Schedule Name
  {3f2e35a2-a239-4c86-989a-216c93eec5b4}, !- Summer Design Day Schedule Name
  {fbf5c968-2f4d-420d-90fa-92cf66e5e83f}; !- Winter Design Day Schedule Name

OS:Schedule:Day,
  {42cb8a3b-0c98-401a-af9b-1aaa4b5d763a}, !- Handle
  0600|2200|SmallHotel|default|hoo Schedule Week Day, !- Name
  {8f8bc68a-5681-4536-a2c9-423d448da541}, !- Schedule Type Limits Name
  ,                                       !- Interpolate to Timestep
  6,                                      !- Hour 1
  0,                                      !- Minute 1
  0,                                      !- Value Until Time 1
  22,                                     !- Hour 2
  0,                                      !- Minute 2
  1,                                      !- Value Until Time 2
  24,                                     !- Hour 3
  0,                                      !- Minute 3
  0;                                      !- Value Until Time 3

OS:Schedule:Day,
  {1d364947-5044-4f16-ac31-f9a7f08e78f5}, !- Handle
  Schedule Day 2,                         !- Name
  ,                                       !- Schedule Type Limits Name
  ,                                       !- Interpolate to Timestep
  24,                                     !- Hour 1
  0,                                      !- Minute 1
  0;                                      !- Value Until Time 1

OS:Schedule:Day,
  {fbf5c968-2f4d-420d-90fa-92cf66e5e83f}, !- Handle
  0600|2200|SmallHotel|default|hoo Winter Design Day, !- Name
  {8f8bc68a-5681-4536-a2c9-423d448da541}, !- Schedule Type Limits Name
  ,                                       !- Interpolate to Timestep
  24,                                     !- Hour 1
  0,                                      !- Minute 1
  0;                                      !- Value Until Time 1

OS:Schedule:Day,
  {a877eece-4cd7-400c-bc50-b1644b907188}, !- Handle
  Schedule Day 3,                         !- Name
  ,                                       !- Schedule Type Limits Name
  ,                                       !- Interpolate to Timestep
  24,                                     !- Hour 1
  0,                                      !- Minute 1
  0;                                      !- Value Until Time 1

OS:Schedule:Day,
  {3f2e35a2-a239-4c86-989a-216c93eec5b4}, !- Handle
  0600|2200|SmallHotel|default|hoo Summer Design Day, !- Name
  {8f8bc68a-5681-4536-a2c9-423d448da541}, !- Schedule Type Limits Name
  ,                                       !- Interpolate to Timestep
  24,                                     !- Hour 1
  0,                                      !- Minute 1
  1;                                      !- Value Until Time 1

OS:DefaultScheduleSet,
  {06c3310d-a411-4a83-83b8-c62cdd004893}, !- Handle
  Building Hours of Operation,            !- Name
  {b18330d4-8351-42e2-a719-3fb94ca77f57}, !- Hours of Operation Schedule Name
  ,                                       !- Number of People Schedule Name
  ,                                       !- People Activity Level Schedule Name
  ,                                       !- Lighting Schedule Name
  ,                                       !- Electric Equipment Schedule Name
  ,                                       !- Gas Equipment Schedule Name
  ,                                       !- Hot Water Equipment Schedule Name
  ,                                       !- Infiltration Schedule Name
  ,                                       !- Steam Equipment Schedule Name
  ;                                       !- Other Equipment Schedule Name

OS:ScheduleTypeLimits,
  {8f8bc68a-5681-4536-a2c9-423d448da541}, !- Handle
  OnOff,                                  !- Name
  0,                                      !- Lower Limit Value {BasedOnField A4}
  1,                                      !- Upper Limit Value {BasedOnField A4}
  Discrete,                               !- Numeric Type
  Availability;                           !- Unit Type

OS:Schedule:Ruleset,
  {a530813f-ca6a-4024-93b4-f18d3cc6d7fe}, !- Handle
  0600|2200|SmallHotel|default|elevator,  !- Name
  {6b1edde2-f726-4be4-a655-3d25c754adad}, !- Schedule Type Limits Name
  {0bd87b28-3803-4528-924f-2fa71d910cff}, !- Default Day Schedule Name
  {5a102194-ec80-4d7f-9861-02d5c95081ec}, !- Summer Design Day Schedule Name
  {f65fbe65-282d-4899-897f-a5fbaad0f73c}; !- Winter Design Day Schedule Name

OS:ScheduleTypeLimits,
  {6b1edde2-f726-4be4-a655-3d25c754adad}, !- Handle
  Elevators Schedule Type Limits,         !- Name
  0,                                      !- Lower Limit Value {BasedOnField A4}
  1,                                      !- Upper Limit Value {BasedOnField A4}
  Continuous,                             !- Numeric Type
  Dimensionless;                          !- Unit Type

OS:Schedule:Day,
  {0bd87b28-3803-4528-924f-2fa71d910cff}, !- Handle
  0600|2200|SmallHotel|default|elevator |default, !- Name
  {6b1edde2-f726-4be4-a655-3d25c754adad}, !- Schedule Type Limits Name
  ,                                       !- Interpolate to Timestep
  4,                                      !- Hour 1
  0,                                      !- Minute 1
  0.05,                                   !- Value Until Time 1
  5,                                      !- Hour 2
  0,                                      !- Minute 2
  0.1,                                    !- Value Until Time 2
  6,                                      !- Hour 3
  0,                                      !- Minute 3
  0.2,                                    !- Value Until Time 3
  7,                                      !- Hour 4
  0,                                      !- Minute 4
  0.4,                                    !- Value Until Time 4
  9,                                      !- Hour 5
  0,                                      !- Minute 5
  0.5,                                    !- Value Until Time 5
  10,                                     !- Hour 6
  0,                                      !- Minute 6
  0.35,                                   !- Value Until Time 6
  16,                                     !- Hour 7
  0,                                      !- Minute 7
  0.15,                                   !- Value Until Time 7
  17,                                     !- Hour 8
  0,                                      !- Minute 8
  0.35,                                   !- Value Until Time 8
  19,                                     !- Hour 9
  0,                                      !- Minute 9
  0.5,                                    !- Value Until Time 9
  21,                                     !- Hour 10
  0,                                      !- Minute 10
  0.4,                                    !- Value Until Time 10
  22,                                     !- Hour 11
  0,                                      !- Minute 11
  0.3,                                    !- Value Until Time 11
  23,                                     !- Hour 12
  0,                                      !- Minute 12
  0.2,                                    !- Value Until Time 12
  24,                                     !- Hour 13
  0,                                      !- Minute 13
  0.1;                                    !- Value Until Time 13

OS:Schedule:Day,
  {5a102194-ec80-4d7f-9861-02d5c95081ec}, !- Handle
  0600|2200|SmallHotel|default|elevator Summer Design Day, !- Name
  {6b1edde2-f726-4be4-a655-3d25c754adad}, !- Schedule Type Limits Name
  ,                                       !- Interpolate to Timestep
  4,                                      !- Hour 1
  0,                                      !- Minute 1
  0.05,                                   !- Value Until Time 1
  5,                                      !- Hour 2
  0,                                      !- Minute 2
  0.1,                                    !- Value Until Time 2
  6,                                      !- Hour 3
  0,                                      !- Minute 3
  0.2,                                    !- Value Until Time 3
  7,                                      !- Hour 4
  0,                                      !- Minute 4
  0.4,                                    !- Value Until Time 4
  9,                                      !- Hour 5
  0,                                      !- Minute 5
  0.5,                                    !- Value Until Time 5
  10,                                     !- Hour 6
  0,                                      !- Minute 6
  0.35,                                   !- Value Until Time 6
  16,                                     !- Hour 7
  0,                                      !- Minute 7
  0.15,                                   !- Value Until Time 7
  17,                                     !- Hour 8
  0,                                      !- Minute 8
  0.35,                                   !- Value Until Time 8
  19,                                     !- Hour 9
  0,                                      !- Minute 9
  0.5,                                    !- Value Until Time 9
  21,                                     !- Hour 10
  0,                                      !- Minute 10
  0.4,                                    !- Value Until Time 10
  22,                                     !- Hour 11
  0,                                      !- Minute 11
  0.3,                                    !- Value Until Time 11
  23,                                     !- Hour 12
  0,                                      !- Minute 12
  0.2,                                    !- Value Until Time 12
  24,                                     !- Hour 13
  0,                                      !- Minute 13
  0.1;                                    !- Value Until Time 13

OS:Schedule:Day,
  {f65fbe65-282d-4899-897f-a5fbaad0f73c}, !- Handle
  0600|2200|SmallHotel|default|elevator Winter Design Day, !- Name
  {6b1edde2-f726-4be4-a655-3d25c754adad}, !- Schedule Type Limits Name
  ,                                       !- Interpolate to Timestep
  4,                                      !- Hour 1
  0,                                      !- Minute 1
  0.05,                                   !- Value Until Time 1
  5,                                      !- Hour 2
  0,                                      !- Minute 2
  0.1,                                    !- Value Until Time 2
  6,                                      !- Hour 3
  0,                                      !- Minute 3
  0.2,                                    !- Value Until Time 3
  7,                                      !- Hour 4
  0,                                      !- Minute 4
  0.4,                                    !- Value Until Time 4
  9,                                      !- Hour 5
  0,                                      !- Minute 5
  0.5,                                    !- Value Until Time 5
  10,                                     !- Hour 6
  0,                                      !- Minute 6
  0.35,                                   !- Value Until Time 6
  16,                                     !- Hour 7
  0,                                      !- Minute 7
  0.15,                                   !- Value Until Time 7
  17,                                     !- Hour 8
  0,                                      !- Minute 8
  0.35,                                   !- Value Until Time 8
  19,                                     !- Hour 9
  0,                                      !- Minute 9
  0.5,                                    !- Value Until Time 9
  21,                                     !- Hour 10
  0,                                      !- Minute 10
  0.4,                                    !- Value Until Time 10
  22,                                     !- Hour 11
  0,                                      !- Minute 11
  0.3,                                    !- Value Until Time 11
  23,                                     !- Hour 12
  0,                                      !- Minute 12
  0.2,                                    !- Value Until Time 12
  24,                                     !- Hour 13
  0,                                      !- Minute 13
  0.1;                                    !- Value Until Time 13

OS:Schedule:Ruleset,
  {cc66ccfe-20d0-4a7e-9238-2b31725d739d}, !- Handle
  0600|2200|SmallHotel|Storage|lighting,  !- Name
  {891fd25c-14fe-4dbe-803d-424e7eeaeb18}, !- Schedule Type Limits Name
  {a50e7ef1-8a7d-47fe-9025-60f4ef959301}, !- Default Day Schedule Name
  {63743a46-3e4f-4b5d-af9a-fb547d3f5fd6}, !- Summer Design Day Schedule Name
  {3e1f2cb5-3e8f-4dca-ae84-550b437d918a}; !- Winter Design Day Schedule Name

OS:ScheduleTypeLimits,
  {891fd25c-14fe-4dbe-803d-424e7eeaeb18}, !- Handle
  Lights Schedule Type Limits,            !- Name
  0,                                      !- Lower Limit Value {BasedOnField A4}
  1,                                      !- Upper Limit Value {BasedOnField A4}
  Continuous,                             !- Numeric Type
  Dimensionless;                          !- Unit Type

OS:Schedule:Day,
  {a50e7ef1-8a7d-47fe-9025-60f4ef959301}, !- Handle
  0600|2200|SmallHotel|Storage|lighting |default, !- Name
  {891fd25c-14fe-4dbe-803d-424e7eeaeb18}, !- Schedule Type Limits Name
  ,                                       !- Interpolate to Timestep
  7,                                      !- Hour 1
  0,                                      !- Minute 1
  0.1,                                    !- Value Until Time 1
  8,                                      !- Hour 2
  0,                                      !- Minute 2
  0.2,                                    !- Value Until Time 2
  18,                                     !- Hour 3
  0,                                      !- Minute 3
  0.4,                                    !- Value Until Time 3
  22,                                     !- Hour 4
  0,                                      !- Minute 4
  0.2,                                    !- Value Until Time 4
  24,                                     !- Hour 5
  0,                                      !- Minute 5
  0.1;                                    !- Value Until Time 5

OS:Schedule:Day,
  {63743a46-3e4f-4b5d-af9a-fb547d3f5fd6}, !- Handle
  0600|2200|SmallHotel|Storage|lighting Summer Design Day, !- Name
  {891fd25c-14fe-4dbe-803d-424e7eeaeb18}, !- Schedule Type Limits Name
  ,                                       !- Interpolate to Timestep
  7,                                      !- Hour 1
  0,                                      !- Minute 1
  0.1,                                    !- Value Until Time 1
  8,                                      !- Hour 2
  0,                                      !- Minute 2
  0.2,                                    !- Value Until Time 2
  18,                                     !- Hour 3
  0,                                      !- Minute 3
  1,                                      !- Value Until Time 3
  22,                                     !- Hour 4
  0,                                      !- Minute 4
  0.2,                                    !- Value Until Time 4
  24,                                     !- Hour 5
  0,                                      !- Minute 5
  0.1;                                    !- Value Until Time 5

OS:Schedule:Day,
  {3e1f2cb5-3e8f-4dca-ae84-550b437d918a}, !- Handle
  0600|2200|SmallHotel|Storage|lighting Winter Design Day, !- Name
  {891fd25c-14fe-4dbe-803d-424e7eeaeb18}, !- Schedule Type Limits Name
  ,                                       !- Interpolate to Timestep
  24,                                     !- Hour 1
  0,                                      !- Minute 1
  0.1;                                    !- Value Until Time 1

OS:Schedule:Ruleset,
  {93b130e2-2351-4fab-9ada-43d87b32cef9}, !- Handle
  0600|2200|SmallHotel|default|lighting,  !- Name
  {891fd25c-14fe-4dbe-803d-424e7eeaeb18}, !- Schedule Type Limits Name
  {b1cbc2a1-faf6-48c6-9ccf-4e5259d92538}, !- Default Day Schedule Name
  {300aadde-96bc-49f3-b204-3e01a45a4579}, !- Summer Design Day Schedule Name
  {bc260469-fc14-48d7-a840-bef6672038c8}; !- Winter Design Day Schedule Name

OS:Schedule:Day,
  {b1cbc2a1-faf6-48c6-9ccf-4e5259d92538}, !- Handle
  0600|2200|SmallHotel|default|lighting |default, !- Name
  {891fd25c-14fe-4dbe-803d-424e7eeaeb18}, !- Schedule Type Limits Name
  ,                                       !- Interpolate to Timestep
  1,                                      !- Hour 1
  0,                                      !- Minute 1
  0.2,                                    !- Value Until Time 1
  2,                                      !- Hour 2
  0,                                      !- Minute 2
  0.15,                                   !- Value Until Time 2
  5,                                      !- Hour 3
  0,                                      !- Minute 3
  0.1,                                    !- Value Until Time 3
  6,                                      !- Hour 4
  0,                                      !- Minute 4
  0.2,                                    !- Value Until Time 4
  7,                                      !- Hour 5
  0,                                      !- Minute 5
  0.4,                                    !- Value Until Time 5
  8,                                      !- Hour 6
  0,                                      !- Minute 6
  0.5,                                    !- Value Until Time 6
  10,                                     !- Hour 7
  0,                                      !- Minute 7
  0.4,                                    !- Value Until Time 7
  18,                                     !- Hour 8
  0,                                      !- Minute 8
  0.25,                                   !- Value Until Time 8
  19,                                     !- Hour 9