
OS:Version,
  {235861bd-98ba-4c51-a258-51be4e9446d4}, !- Handle
  1.5.5;                                  !- Version Identifier

OS:ClimateZones,
  {135edfab-17e7-40db-a436-27d385a8cd6d}, !- Handle
  ,                                       !- Active Institution
  ,                                       !- Active Year
  ASHRAE,                                 !- Climate Zone Institution Name 1
  ANSI/ASHRAE Standard 169,               !- Climate Zone Document Name 1
  2006,                                   !- Climate Zone Document Year 1
  ,                                       !- Climate Zone Value 1
  CEC,                                    !- Climate Zone Institution Name 2
  California Climate Zone Descriptions,   !- Climate Zone Document Name 2
  1995,                                   !- Climate Zone Document Year 2
  ;                                       !- Climate Zone Value 2

OS:YearDescription,
  {513d8dda-86cb-442a-b01c-1f7f0e0ac70e}; !- Handle

OS:RadianceParameters,
  {270a96f1-3c86-4b75-a667-cdf22790e2c8}, !- Handle
  1,                                      !- Accumulated Rays per Record
  0,                                      !- Direct Threshold
  1,                                      !- Direct Certainty
  1,                                      !- Direct Jitter
  1,                                      !- Direct Pretest
  6,                                      !- Ambient Bounces VMX
  2,                                      !- Ambient Bounces DMX
  4050,                                   !- Ambient Divisions VMX
  512,                                    !- Ambient Divisions DMX
  256,                                    !- Ambient Supersamples
  0.001,                                  !- Limit Weight VMX
  0.001,                                  !- Limit Weight DMX
  500,                                    !- Klems Sampling Density
  146;                                    !- Sky Discretization Resolution

OS:SimulationControl,
  {2c487a4c-bac9-4ac5-b669-1e49d9da7c2b}, !- Handle
  ,                                       !- Do Zone Sizing Calculation
  ,                                       !- Do System Sizing Calculation
  ,                                       !- Do Plant Sizing Calculation
  No,                                     !- Run Simulation for Sizing Periods
  ,                                       !- Run Simulation for Weather File Run Periods
  0.04,                                   !- Loads Convergence Tolerance Value
  ,                                       !- Temperature Convergence Tolerance Value {deltaC}
  ,                                       !- Solar Distribution
  ,                                       !- Maximum Number of Warmup Days
  2;                                      !- Minimum Number of Warmup Days

OS:Sizing:Parameters,
  {dde5af6f-7923-4600-a28a-7556673a0266}, !- Handle
  1.25,                                   !- Heating Sizing Factor
  1.15;                                   !- Cooling Sizing Factor

OS:ProgramControl,
  {05027a99-f2b3-4aeb-afc6-1425fbb4371d}; !- Handle

OS:Timestep,
  {4ebc9f1e-4707-402e-9844-67eb1ffbd522}, !- Handle
  2;                                      !- Number of Timesteps per Hour

OS:OutputControl:ReportingTolerances,
  {65797aa2-06a9-45fe-b69d-bc6e060399d3}; !- Handle

OS:ConvergenceLimits,
  {9fc11aba-8822-4f3d-970c-46391ba4040d}; !- Handle

OS:ShadowCalculation,
  {ca758bea-4416-4626-9bba-3d8795c79bd6}, !- Handle
  7,                                      !- Calculation Frequency
  15000;                                  !- Maximum Figures in Shadow Overlap Calculations

OS:SurfaceConvectionAlgorithm:Inside,
  {aaabfc36-718a-4ab0-b622-f186ebb45230}, !- Handle
  TARP;                                   !- Algorithm

OS:SurfaceConvectionAlgorithm:Outside,
  {9a0a9f6f-4bbd-4b12-a121-9492a1fcd7d6}, !- Handle
  DOE-2;                                  !- Algorithm

OS:HeatBalanceAlgorithm,
  {9d93e563-e1e0-46d7-9e39-d1c8aceb7212}, !- Handle
  ConductionTransferFunction,             !- Algorithm
  200;                                    !- Surface Temperature Upper Limit {F}

OS:ZoneAirHeatBalanceAlgorithm,
  {8520d93e-310f-4696-9bcd-36228bfdd743}, !- Handle
  AnalyticalSolution;                     !- Algorithm

OS:ZoneAirContaminantBalance,
  {eb5fc3ae-fb22-4160-8fcb-3e3b22b000d3}; !- Handle

OS:ZoneCapacitanceMultiplier:ResearchSpecial,
  {4020ce4f-5a7a-4849-8028-8305d7b751b1}, !- Handle
  ,                                       !- Temperature Capacity Multiplier
  ,                                       !- Humidity Capacity Multiplier
  ;                                       !- Carbon Dioxide Capacity Multiplier

OS:RunPeriod,
  {28df894d-6af9-4fb8-8f56-df1753344aa3}, !- Handle
  Run Period 1,                           !- Name
  1,                                      !- Begin Month
  1,                                      !- Begin Day of Month
  12,                                     !- End Month
  31,                                     !- End Day of Month
  ,                                       !- Use Weather File Holidays and Special Days
  ,                                       !- Use Weather File Daylight Saving Period
  ,                                       !- Apply Weekend Holiday Rule
  ,                                       !- Use Weather File Rain Indicators
  ,                                       !- Use Weather File Snow Indicators
  ;                                       !- Number of Times Runperiod to be Repeated

OS:Building,
  {bf305633-c5a1-4881-9edf-ca5e1a8e1274}, !- Handle
  Building 1,                             !- Name
  ,                                       !- Building Sector Type
  ,                                       !- North Axis {deg}
  ,                                       !- Nominal Floor to Floor Height {m}
  ,                                       !- Space Type Name
  ,                                       !- Default Construction Set Name
  {13492861-1e73-40b3-a508-85903390228d}, !- Default Schedule Set Name
  ,                                       !- Standards Number of Stories
  ,                                       !- Standards Number of Above Ground Stories
  StripMall;                              !- Standards Building Type

OS:LifeCycleCost:Parameters,
  {231cf8a0-f0e7-4251-a99f-11f0d464e661}, !- Handle
  FEMP,                                   !- Analysis Type
  ,                                       !- Discounting Convention
  ,                                       !- Inflation Approach
  ,                                       !- Real Discount Rate
  ,                                       !- Nominal Discount Rate
  ,                                       !- Inflation
  ,                                       !- Base Date Month
  ,                                       !- Base Date Year
  ,                                       !- Service Date Month
  ,                                       !- Service Date Year
  ,                                       !- Length of Study Period in Years
  ,                                       !- Tax Rate
  ,                                       !- Depreciation Method
  Yes;                                    !- Use NIST Fuel Escalation Rates

OS:Facility,
  {3ba8e45b-b833-44eb-a723-ea6c3946dc96}; !- Handle

OS:SpaceType,
  {3cd6b75b-df4c-47e4-82a2-230d99b834d1}, !- Handle
  StripMall|WholeBuilding|DOE Ref 1980-2004|ASHRAE 169-2006-5A, !- Name
  {5ef02aa2-6264-4699-92db-29dd41771412}, !- Default Construction Set Name
  {76c6ac1c-5ca7-4412-b946-26ae4f286de0}, !- Default Schedule Set Name
  {97610bf4-faac-4c42-8a7d-4b4f0c2c3559}, !- Group Rendering Name
  {390c794a-1d3c-445d-9a3d-b489ee75dc72}, !- Design Specification Outdoor Air Object Name
  StripMall,                              !- Standards Building Type
  WholeBuilding;                          !- Standards Space Type

OS:Rendering:Color,
  {97610bf4-faac-4c42-8a7d-4b4f0c2c3559}, !- Handle
  Rendering Color 1,                      !- Name
  171,                                    !- Rendering Red Value
  222,                                    !- Rendering Green Value
  78;                                     !- Rendering Blue Value

OS:Schedule:Ruleset,
  {f03b81c2-f51e-49ce-b458-4c7d8763c3c9}, !- Handle
  0700|2100|StripMall|default|hoo,        !- Name
  {f2cde167-2d54-450a-9a8b-af10051472aa}, !- Schedule Type Limits Name
  {1ddf084c-d408-40c7-b758-168fa931d649}, !- Default Day Schedule Name
  {e83fb508-0c87-406f-9844-9d20473da60a}, !- Summer Design Day Schedule Name
  {94703156-499d-415c-818e-9167825ba496}; !- Winter Design Day Schedule Name

OS:Schedule:Day,
  {1ddf084c-d408-40c7-b758-168fa931d649}, !- Handle
  0700|2100|StripMall|default|hoo Schedule Week Day, !- Name
  {f2cde167-2d54-450a-9a8b-af10051472aa}, !- Schedule Type Limits Name
  ,                                       !- Interpolate to Timestep
  7,                                      !- Hour 1
  0,                                      !- Minute 1
  0,                                      !- Value Until Time 1
  21,                                     !- Hour 2
  0,                                      !- Minute 2
  1,                                      !- Value Until Time 2
  24,                                     !- Hour 3
  0,                                      !- Minute 3
  0;                                      !- Value Until Time 3

OS:Schedule:Day,
  {2b123308-e802-4f6b-b889-b2813acaf69b}, !- Handle
  Schedule Day 2,                         !- Name
  ,                                       !- Schedule Type Limits Name
  ,                                       !- Interpolate to Timestep
  24,                                     !- Hour 1
  0,                                      !- Minute 1
  0;                                      !- Value Until Time 1

OS:Schedule:Day,
  {94703156-499d-415c-818e-9167825ba496}, !- Handle
  0700|2100|StripMall|default|hoo Winter Design Day, !- Name
  {f2cde167-2d54-450a-9a8b-af10051472aa}, !- Schedule Type Limits Name
  ,                                       !- Interpolate to Timestep
  24,                                     !- Hour 1
  0,                                      !- Minute 1
  0;                                      !- Value Until Time 1

OS:Schedule:Day,
  {f50d8178-2eec-4e2e-842e-b463ab018155}, !- Handle
  Schedule Day 3,                         !- Name
  ,                                       !- Schedule Type Limits Name
  ,                                       !- Interpolate to Timestep
  24,                                     !- Hour 1
  0,                                      !- Minute 1
  0;                                      !- Value Until Time 1

OS:Schedule:Day,
  {e83fb508-0c87-406f-9844-9d20473da60a}, !- Handle
  0700|2100|StripMall|default|hoo Summer Design Day, !- Name
  {f2cde167-2d54-450a-9a8b-af10051472aa}, !- Schedule Type Limits Name
  ,                                       !- Interpolate to Timestep
  24,                                     !- Hour 1
  0,                                      !- Minute 1
  1;                                      !- Value Until Time 1

OS:DefaultScheduleSet,
  {13492861-1e73-40b3-a508-85903390228d}, !- Handle
  Building Hours of Operation,            !- Name
  {f03b81c2-f51e-49ce-b458-4c7d8763c3c9}, !- Hours of Operation Schedule Name
  ,                                       !- Number of People Schedule Name
  ,                                       !- People Activity Level Schedule Name
  ,                                       !- Lighting Schedule Name
  ,                                       !- Electric Equipment Schedule Name
  ,                                       !- Gas Equipment Schedule Name
  ,                                       !- Hot Water Equipment Schedule Name
  ,                                       !- Infiltration Schedule Name
  ,                                       !- Steam Equipment Schedule Name
  ;                                       !- Other Equipment Schedule Name

OS:ScheduleTypeLimits,
  {f2cde167-2d54-450a-9a8b-af10051472aa}, !- Handle
  OnOff,                                  !- Name
  0,                                      !- Lower Limit Value {BasedOnField A4}
  1,                                      !- Upper Limit Value {BasedOnField A4}
  Discrete,                               !- Numeric Type
  Availability;                           !- Unit Type

OS:Schedule:Ruleset,
  {1e383fcb-9cfd-49f0-8781-ddc99e8231c8}, !- Handle
  0700|2100|StripMall|default|htg_setpoint, !- Name
  {841a86ed-2f80-4723-b6d0-4b8dc4e85557}, !- Schedule Type Limits Name
  {8d923823-5b77-4d6c-84c2-7c4254b00795}, !- Default Day Schedule Name
  {4d16470a-b7b8-4803-9c9b-3521482dd3f0}, !- Summer Design Day Schedule Name
  {a7131200-4d9f-48b5-94f4-e42609e7a964}; !- Winter Design Day Schedule Name

OS:ScheduleTypeLimits,
  {841a86ed-2f80-4723-b6d0-4b8dc4e85557}, !- Handle
  Thermostat Heating Setpoint Schedule Type Limits, !- Name
  0,                                      !- Lower Limit Value {BasedOnField A4}
  100,                                    !- Upper Limit Value {BasedOnField A4}
  Continuous,                             !- Numeric Type
  Temperature;                            !- Unit Type

OS:Schedule:Day,
  {8d923823-5b77-4d6c-84c2-7c4254b00795}, !- Handle
  0700|2100|StripMall|default|htg_setpoint |default, !- Name
  {841a86ed-2f80-4723-b6d0-4b8dc4e85557}, !- Schedule Type Limits Name
  ,                                       !- Interpolate to Timestep
  6,                                      !- Hour 1
  0,                                      !- Minute 1
  15.6,                                   !- Value Until Time 1
  21,                                     !- Hour 2
  0,                                      !- Minute 2
  21.0000000000001,                       !- Value Until Time 2
  24,                                     !- Hour 3
  0,                                      !- Minute 3
  15.6;                                   !- Value Until Time 3

OS:Schedule:Day,
  {4d16470a-b7b8-4803-9c9b-3521482dd3f0}, !- Handle
  0700|2100|StripMall|default|htg_setpoint Summer Design Day, !- Name
  {841a86ed-2f80-4723-b6d0-4b8dc4e85557}, !- Schedule Type Limits Name
  ,                                       !- Interpolate to Timestep
  6,                                      !- Hour 1
  0,                                      !- Minute 1
  15.6,                                   !- Value Until Time 1
  21,                                     !- Hour 2
  0,                                      !- Minute 2
  21.0000000000001,                       !- Value Until Time 2
  24,                                     !- Hour 3
  0,                                      !- Minute 3
  15.6;                                   !- Value Until Time 3

OS:Schedule:Day,
  {a7131200-4d9f-48b5-94f4-e42609e7a964}, !- Handle
  0700|2100|StripMall|default|htg_setpoint Winter Design Day, !- Name
  {841a86ed-2f80-4723-b6d0-4b8dc4e85557}, !- Schedule Type Limits Name
  ,                                       !- Interpolate to Timestep
  24,                                     !- Hour 1
  0,                                      !- Minute 1
  15.6;                                   !- Value Until Time 1

OS:Schedule:Rule,
  {814df71d-ba24-4f6b-95b0-7f13a3d6281a}, !- Handle
  0700|2100|StripMall|default|htg_setpoint |1/1-12/31|Sat Rule, !- Name
  {1e383fcb-9cfd-49f0-8781-ddc99e8231c8}, !- Schedule Ruleset Name
  0,                                      !- Rule Order
  {c2382c5b-46ef-48e5-827d-77955af2665a}, !- Day Schedule Name
  ,                                       !- Apply Sunday
  ,                                       !- Apply Monday
  ,                                       !- Apply Tuesday
  ,                                       !- Apply Wednesday
  ,                                       !- Apply Thursday
  ,                                       !- Apply Friday
  Yes,                                    !- Apply Saturday
  ,                                       !- Apply Holiday
  DateRange,                              !- Date Specification Type
  1,                                      !- Start Month
  1,                                      !- Start Day
  12,                                     !- End Month
  31;                                     !- End Day

OS:Schedule:Day,
  {c2382c5b-46ef-48e5-827d-77955af2665a}, !- Handle
  0700|2100|StripMall|default|htg_setpoint |1/1-12/31|Sat, !- Name
  {841a86ed-2f80-4723-b6d0-4b8dc4e85557}, !- Schedule Type Limits Name
  ,                                       !- Interpolate to Timestep
  6,                                      !- Hour 1
  0,                                      !- Minute 1
  15.6,                                   !- Value Until Time 1
  22,                                     !- Hour 2
  0,                                      !- Minute 2
  21.0000000000001,                       !- Value Until Time 2
  24,                                     !- Hour 3
  0,                                      !- Minute 3
  15.6;                                   !- Value Until Time 3

OS:Schedule:Rule,
  {29be6d6e-fcc5-4d44-ba5f-843cc857e6e3}, !- Handle
  0700|2100|StripMall|default|htg_setpoint |1/1-12/31|Sun Rule, !- Name
  {1e383fcb-9cfd-49f0-8781-ddc99e8231c8}, !- Schedule Ruleset Name
  1,                                      !- Rule Order
  {bf498ca7-2375-4297-97f0-65bb115fdc70}, !- Day Schedule Name
  Yes,                                    !- Apply Sunday
  ,                                       !- Apply Monday
  ,                                       !- Apply Tuesday
  ,                                       !- Apply Wednesday
  ,                                       !- Apply Thursday
  ,                                       !- Apply Friday
  ,                                       !- Apply Saturday
  ,                                       !- Apply Holiday
  DateRange,                              !- Date Specification Type
  1,                                      !- Start Month
  1,                                      !- Start Day
  12,                                     !- End Month
  31;                                     !- End Day

OS:Schedule:Day,
  {bf498ca7-2375-4297-97f0-65bb115fdc70}, !- Handle
  0700|2100|StripMall|default|htg_setpoint |1/1-12/31|Sun, !- Name
  {841a86ed-2f80-4723-b6d0-4b8dc4e85557}, !- Schedule Type Limits Name
  ,                                       !- Interpolate to Timestep
  8,                                      !- Hour 1
  0,                                      !- Minute 1
  15.6,                                   !- Value Until Time 1
  19,                                     !- Hour 2
  0,                                      !- Minute 2
  21.0000000000001,                       !- Value Until Time 2
  24,                                     !- Hour 3
  0,                                      !- Minute 3
  15.6;                                   !- Value Until Time 3

OS:Schedule:Ruleset,
  {bc9c7097-183b-41b7-bd6d-644a1aab0770}, !- Handle
  0700|2100|StripMall|default|activity,   !- Name
  {520fb995-4c94-4095-82cb-43af89890178}, !- Schedule Type Limits Name
  {500c9011-42be-4970-b3b4-a55eb38857fc}, !- Default Day Schedule Name
  {95b9cc86-c997-43da-b12d-319dc58e200a}, !- Summer Design Day Schedule Name
  {9da8cae2-cb93-43a0-9320-cc9d5b5c7d4e}; !- Winter Design Day Schedule Name

OS:ScheduleTypeLimits,
  {520fb995-4c94-4095-82cb-43af89890178}, !- Handle
  People Activity Type Limits,            !- Name
  0,                                      !- Lower Limit Value {BasedOnField A4}
  ,                                       !- Upper Limit Value {BasedOnField A4}
  Continuous,                             !- Numeric Type
  ActivityLevel;                          !- Unit Type

OS:Schedule:Day,
  {500c9011-42be-4970-b3b4-a55eb38857fc}, !- Handle
  0700|2100|StripMall|default|activity |default, !- Name
  {520fb995-4c94-4095-82cb-43af89890178}, !- Schedule Type Limits Name
  ,                                       !- Interpolate to Timestep
  24,                                     !- Hour 1
  0,                                      !- Minute 1
  120;                                    !- Value Until Time 1

OS:Schedule:Day,
  {95b9cc86-c997-43da-b12d-319dc58e200a}, !- Handle
  0700|2100|StripMall|default|activity Summer Design Day, !- Name
  {520fb995-4c94-4095-82cb-43af89890178}, !- Schedule Type Limits Name
  ,                                       !- Interpolate to Timestep
  24,                                     !- Hour 1
  0,                                      !- Minute 1
  120;                                    !- Value Until Time 1

OS:Schedule:Day,
  {9da8cae2-cb93-43a0-9320-cc9d5b5c7d4e}, !- Handle
  0700|2100|StripMall|default|activity Winter Design Day, !- Name
  {520fb995-4c94-4095-82cb-43af89890178}, !- Schedule Type Limits Name
  ,                                       !- Interpolate to Timestep
  24,                                     !- Hour 1
  0,                                      !- Minute 1
  120;                                    !- Value Until Time 1

OS:Schedule:Ruleset,
  {12215478-b40d-4290-9718-54d382b48e1f}, !- Handle
  0700|2100|StripMall|default|thermal_ctrl, !- Name
  {c68369bb-8cb1-4d22-998c-736d8944a644}, !- Schedule Type Limits Name
  {d92b4935-8bcb-46d4-8163-9520fde2c2ae}, !- Default Day Schedule Name
  {161bd466-3ce3-4097-98ea-d5ef3cc2a0c8}, !- Summer Design Day Schedule Name
  {a24f7cc4-7a13-4026-95b2-932862a84a4e}; !- Winter Design Day Schedule Name

OS:ScheduleTypeLimits,
  {c68369bb-8cb1-4d22-998c-736d8944a644}, !- Handle
  Dimensionless Schedule Type Limits,     !- Name
  ,                                       !- Lower Limit Value {BasedOnField A4}
  ,                                       !- Upper Limit Value {BasedOnField A4}
  Continuous,                             !- Numeric Type
  Dimensionless;                          !- Unit Type

OS:Schedule:Day,
  {d92b4935-8bcb-46d4-8163-9520fde2c2ae}, !- Handle
  0700|2100|StripMall|default|thermal_ctrl |default, !- Name
  {c68369bb-8cb1-4d22-998c-736d8944a644}, !- Schedule Type Limits Name
  ,                                       !- Interpolate to Timestep
  24,                                     !- Hour 1
  0,                                      !- Minute 1
  4;                                      !- Value Until Time 1

OS:Schedule:Day,
  {161bd466-3ce3-4097-98ea-d5ef3cc2a0c8}, !- Handle
  0700|2100|StripMall|default|thermal_ctrl Summer Design Day, !- Name
  {c68369bb-8cb1-4d22-998c-736d8944a644}, !- Schedule Type Limits Name
  ,                                       !- Interpolate to Timestep
  24,                                     !- Hour 1
  0,                                      !- Minute 1
  4;                                      !- Value Until Time 1

OS:Schedule:Day,
  {a24f7cc4-7a13-4026-95b2-932862a84a4e}, !- Handle
  0700|2100|StripMall|default|thermal_ctrl Winter Design Day, !- Name
  {c68369bb-8cb1-4d22-998c-736d8944a644}, !- Schedule Type Limits Name
  ,                                       !- Interpolate to Timestep
  24,                                     !- Hour 1
  0,                                      !- Minute 1
  4;                                      !- Value Until Time 1

OS:Schedule:Ruleset,
  {8723d5a5-a079-4b43-a151-cf112d8d95cb}, !- Handle
  0700|2100|StripMall|default|lighting,   !- Name
  {d3589b68-0e88-4a70-b86a-025253a8d28f}, !- Schedule Type Limits Name
  {03a012da-cf88-44c6-8cfb-0ebe75287416}, !- Default Day Schedule Name
  {f6ce0420-3fa3-4d60-b8de-36de488f8745}, !- Summer Design Day Schedule Name
  {93d98e0a-eff6-491d-9e15-f5c499376c37}; !- Winter Design Day Schedule Name

OS:ScheduleTypeLimits,
  {d3589b68-0e88-4a70-b86a-025253a8d28f}, !- Handle
  Lights Schedule Type Limits,            !- Name
  0,                                      !- Lower Limit Value {BasedOnField A4}
  1,                                      !- Upper Limit Value {BasedOnField A4}
  Continuous,                             !- Numeric Type
  Dimensionless;                          !- Unit Type

OS:Schedule:Day,
  {03a012da-cf88-44c6-8cfb-0ebe75287416}, !- Handle
  0700|2100|StripMall|default|lighting |default, !- Name
  {d3589b68-0e88-4a70-b86a-025253a8d28f}, !- Schedule Type Limits Name
  ,                                       !- Interpolate to Timestep
  7,                                      !- Hour 1
  0,                                      !- Minute 1
  0.05,                                   !- Value Until Time 1
  8,                                      !- Hour 2
  0,                                      !- Minute 2
  0.2,                                    !- Value Until Time 2
  9,                                      !- Hour 3
  0,                                      !- Minute 3
  0.5,                                    !- Value Until Time 3
  18,                                     !- Hour 4
  0,                                      !- Minute 4
  0.9,                                    !- Value Until Time 4
  20,                                     !- Hour 5
  0,                                      !- Minute 5
  0.6,                                    !- Value Until Time 5
  21,                                     !- Hour 6
  0,                                      !- Minute 6
  0.5,                                    !- Value Until Time 6
  22,                                     !- Hour 7
  0,                                      !- Minute 7
  0.2,                                    !- Value Until Time 7
  24,                                     !- Hour 8
  0,                                      !- Minute 8
  0.05;                                   !- Value Until Time 8

OS:Schedule:Day,
  {f6ce0420-3fa3-4d60-b8de-36de488f8745}, !- Handle
  0700|2100|StripMall|default|lighting Summer Design Day, !- Name
  {d3589b68-0e88-4a70-b86a-025253a8d28f}, !- Schedule Type Limits Name
  ,                                       !- Interpolate to Timestep
  7,                                      !- Hour 1
  0,                                      !- Minute 1
  0.05,                                   !- Value Until Time 1
  8,                                      !- Hour 2
  0,                                      !- Minute 2
  0.2,                                    !- Value Until Time 2
  21,                                     !- Hour 3
  0,                                      !- Minute 3
  1,                                      !- Value Until Time 3
  22,                                     !- Hour 4
  0,                                      !- Minute 4
  0.2,                                    !- Value Until Time 4
  24,                                     !- Hour 5
  0,                                      !- Minute 5
  0.05;                                   !- Value Until Time 5

OS:Schedule:Day,
  {93d98e0a-eff6-491d-9e15-f5c499376c37}, !- Handle
  0700|2100|StripMall|default|lighting Winter Design Day, !- Name
  {d3589b68-0e88-4a70-b86a-025253a8d28f}, !- Schedule Type Limits Name
  ,                                       !- Interpolate to Timestep
  24,                                     !- Hour 1
  0,                                      !- Minute 1
  0.05;                                   !- Value Until Time 1

OS:Schedule:Rule,
  {01510e93-b53c-42e9-9c8f-e406e9556330}, !- Handle
  0700|2100|StripMall|default|lighting |1/1-12/31|Sat Rule, !- Name
  {8723d5a5-a079-4b43-a151-cf112d8d95cb}, !- Schedule Ruleset Name
  0,                                      !- Rule Order
  {c13aaaff-f504-46f2-a3b1-2eccfeb39e0f}, !- Day Schedule Name
  ,                                       !- Apply Sunday
  ,                                       !- Apply Monday
  ,                                       !- Apply Tuesday
  ,                                       !- Apply Wednesday
  ,                                       !- Apply Thursday
  ,                                       !- Apply Friday
  Yes,                                    !- Apply Saturday
  ,                                       !- Apply Holiday
  DateRange,                              !- Date Specification Type
  1,                                      !- Start Month
  1,                                      !- Start Day
  12,                                     !- End Month
  31;                                     !- End Day

OS:Schedule:Day,
  {c13aaaff-f504-46f2-a3b1-2eccfeb39e0f}, !- Handle
  0700|2100|StripMall|default|lighting |1/1-12/31|Sat, !- Name
  {d3589b68-0e88-4a70-b86a-025253a8d28f}, !- Schedule Type Limits Name
  ,                                       !- Interpolate to Timestep
  7,                                      !- Hour 1
  0,                                      !- Minute 1
  0.05,                                   !- Value Until Time 1
  8,                                      !- Hour 2
  0,                                      !- Minute 2
  0.1,                                    !- Value Until Time 2
  9,                                      !- Hour 3
  0,                                      !- Minute 3
  0.3,                                    !- Value Until Time 3
  10,                                     !- Hour 4
  0,                                      !- Minute 4
  0.6,                                    !- Value Until Time 4
  18,                                     !- Hour 5
  0,                                      !- Minute 5
  0.9,                                    !- Value Until Time 5
  19,                                     !- Hour 6
  0,                                      !- Minute 6
  0.5,                                    !- Value Until Time 6
  21,                                     !- Hour 7
  0,                                      !- Minute 7
  0.3,                                    !- Value Until Time 7