
OS:Version,
  {4b7c128b-fbc1-4607-87dd-00b6d111c31c}, !- Handle
  1.5.5;                                  !- Version Identifier

OS:ClimateZones,
  {135edfab-17e7-40db-a436-27d385a8cd6d}, !- Handle
  ,                                       !- Active Institution
  ,                                       !- Active Year
  ASHRAE,                                 !- Climate Zone Institution Name 1
  ANSI/ASHRAE Standard 169,               !- Climate Zone Document Name 1
  2006,                                   !- Climate Zone Document Year 1
  ,                                       !- Climate Zone Value 1
  CEC,                                    !- Climate Zone Institution Name 2
  California Climate Zone Descriptions,   !- Climate Zone Document Name 2
  1995,                                   !- Climate Zone Document Year 2
  ;                                       !- Climate Zone Value 2

OS:YearDescription,
  {513d8dda-86cb-442a-b01c-1f7f0e0ac70e}; !- Handle

OS:RadianceParameters,
  {270a96f1-3c86-4b75-a667-cdf22790e2c8}, !- Handle
  1,                                      !- Accumulated Rays per Record
  0,                                      !- Direct Threshold
  1,                                      !- Direct Certainty
  1,                                      !- Direct Jitter
  1,                                      !- Direct Pretest
  6,                                      !- Ambient Bounces VMX
  2,                                      !- Ambient Bounces DMX
  4050,                                   !- Ambient Divisions VMX
  512,                                    !- Ambient Divisions DMX
  256,                                    !- Ambient Supersamples
  0.001,                                  !- Limit Weight VMX
  0.001,                                  !- Limit Weight DMX
  500,                                    !- Klems Sampling Density
  146;                                    !- Sky Discretization Resolution

OS:SimulationControl,
  {2c487a4c-bac9-4ac5-b669-1e49d9da7c2b}, !- Handle
  ,                                       !- Do Zone Sizing Calculation
  ,                                       !- Do System Sizing Calculation
  ,                                       !- Do Plant Sizing Calculation
  No,                                     !- Run Simulation for Sizing Periods
  ,                                       !- Run Simulation for Weather File Run Periods
  0.04,                                   !- Loads Convergence Tolerance Value
  ,                                       !- Temperature Convergence Tolerance Value {deltaC}
  ,                                       !- Solar Distribution
  ,                                       !- Maximum Number of Warmup Days
  2;                                      !- Minimum Number of Warmup Days

OS:Sizing:Parameters,
  {dde5af6f-7923-4600-a28a-7556673a0266}, !- Handle
  1.25,                                   !- Heating Sizing Factor
  1.15;                                   !- Cooling Sizing Factor

OS:ProgramControl,
  {05027a99-f2b3-4aeb-afc6-1425fbb4371d}; !- Handle

OS:Timestep,
  {4ebc9f1e-4707-402e-9844-67eb1ffbd522}, !- Handle
  2;                                      !- Number of Timesteps per Hour

OS:OutputControl:ReportingTolerances,
  {65797aa2-06a9-45fe-b69d-bc6e060399d3}; !- Handle

OS:ConvergenceLimits,
  {9fc11aba-8822-4f3d-970c-46391ba4040d}; !- Handle

OS:ShadowCalculation,
  {ca758bea-4416-4626-9bba-3d8795c79bd6}, !- Handle
  7,                                      !- Calculation Frequency
  15000;                                  !- Maximum Figures in Shadow Overlap Calculations

OS:SurfaceConvectionAlgorithm:Inside,
  {aaabfc36-718a-4ab0-b622-f186ebb45230}, !- Handle
  TARP;                                   !- Algorithm

OS:SurfaceConvectionAlgorithm:Outside,
  {9a0a9f6f-4bbd-4b12-a121-9492a1fcd7d6}, !- Handle
  DOE-2;                                  !- Algorithm

OS:HeatBalanceAlgorithm,
  {9d93e563-e1e0-46d7-9e39-d1c8aceb7212}, !- Handle
  ConductionTransferFunction,             !- Algorithm
  200;                                    !- Surface Temperature Upper Limit {F}

OS:ZoneAirHeatBalanceAlgorithm,
  {8520d93e-310f-4696-9bcd-36228bfdd743}, !- Handle
  AnalyticalSolution;                     !- Algorithm

OS:ZoneAirContaminantBalance,
  {eb5fc3ae-fb22-4160-8fcb-3e3b22b000d3}; !- Handle

OS:ZoneCapacitanceMultiplier:ResearchSpecial,
  {4020ce4f-5a7a-4849-8028-8305d7b751b1}, !- Handle
  ,                                       !- Temperature Capacity Multiplier
  ,                                       !- Humidity Capacity Multiplier
  ;                                       !- Carbon Dioxide Capacity Multiplier

OS:RunPeriod,
  {28df894d-6af9-4fb8-8f56-df1753344aa3}, !- Handle
  Run Period 1,                           !- Name
  1,                                      !- Begin Month
  1,                                      !- Begin Day of Month
  12,                                     !- End Month
  31,                                     !- End Day of Month
  ,                                       !- Use Weather File Holidays and Special Days
  ,                                       !- Use Weather File Daylight Saving Period
  ,                                       !- Apply Weekend Holiday Rule
  ,                                       !- Use Weather File Rain Indicators
  ,                                       !- Use Weather File Snow Indicators
  ;                                       !- Number of Times Runperiod to be Repeated

OS:Building,
  {bf305633-c5a1-4881-9edf-ca5e1a8e1274}, !- Handle
  Building 1,                             !- Name
  ,                                       !- Building Sector Type
  ,                                       !- North Axis {deg}
  ,                                       !- Nominal Floor to Floor Height {m}
  ,                                       !- Space Type Name
  ,                                       !- Default Construction Set Name
  {5aafb795-8550-4604-82c3-40a99f355957}, !- Default Schedule Set Name
  ,                                       !- Standards Number of Stories
  ,                                       !- Standards Number of Above Ground Stories
  StripMall;                              !- Standards Building Type

OS:LifeCycleCost:Parameters,
  {231cf8a0-f0e7-4251-a99f-11f0d464e661}, !- Handle
  FEMP,                                   !- Analysis Type
  ,                                       !- Discounting Convention
  ,                                       !- Inflation Approach
  ,                                       !- Real Discount Rate
  ,                                       !- Nominal Discount Rate
  ,                                       !- Inflation
  ,                                       !- Base Date Month
  ,                                       !- Base Date Year
  ,                                       !- Service Date Month
  ,                                       !- Service Date Year
  ,                                       !- Length of Study Period in Years
  ,                                       !- Tax Rate
  ,                                       !- Depreciation Method
  Yes;                                    !- Use NIST Fuel Escalation Rates

OS:Facility,
  {3ba8e45b-b833-44eb-a723-ea6c3946dc96}; !- Handle

OS:SpaceType,
  {65a9e244-4ed7-431d-8f33-7a97971e3669}, !- Handle
  StripMall|WholeBuilding|DOE Ref 2004|ASHRAE 169-2006-5A, !- Name
  {d3b47a81-7b01-417e-9bfe-120a5db5d5a7}, !- Default Construction Set Name
  {449d0869-81f5-455a-946a-448740576494}, !- Default Schedule Set Name
  {950413b9-1be9-449f-bc4d-fb77c7ccfbdb}, !- Group Rendering Name
  {ac4ebd2a-1df2-45c8-9965-11d5314d690a}, !- Design Specification Outdoor Air Object Name
  StripMall,                              !- Standards Building Type
  WholeBuilding;                          !- Standards Space Type

OS:Rendering:Color,
  {950413b9-1be9-449f-bc4d-fb77c7ccfbdb}, !- Handle
  Rendering Color 1,                      !- Name
  171,                                    !- Rendering Red Value
  222,                                    !- Rendering Green Value
  78;                                     !- Rendering Blue Value

OS:Schedule:Ruleset,
  {dc375bd7-d22a-4b27-a492-4cc04a211d88}, !- Handle
  0700|2100|StripMall|default|hoo,        !- Name
  {87996eea-0250-4d6f-ada8-2845171f5d4d}, !- Schedule Type Limits Name
  {3a192c0b-14a2-494f-85aa-16b0f7890328}, !- Default Day Schedule Name
  {89e2017d-19b3-4842-ad72-c35d08618c39}, !- Summer Design Day Schedule Name
  {89f37eda-5599-48a4-9bd5-502a2cce40c6}; !- Winter Design Day Schedule Name

OS:Schedule:Day,
  {3a192c0b-14a2-494f-85aa-16b0f7890328}, !- Handle
  0700|2100|StripMall|default|hoo Schedule Week Day, !- Name
  {87996eea-0250-4d6f-ada8-2845171f5d4d}, !- Schedule Type Limits Name
  ,                                       !- Interpolate to Timestep
  7,                                      !- Hour 1
  0,                                      !- Minute 1
  0,                                      !- Value Until Time 1
  21,                                     !- Hour 2
  0,                                      !- Minute 2
  1,                                      !- Value Until Time 2
  24,                                     !- Hour 3
  0,                                      !- Minute 3
  0;                                      !- Value Until Time 3

OS:Schedule:Day,
  {92ddd822-f669-41bb-8992-1e7503b67568}, !- Handle
  Schedule Day 2,                         !- Name
  ,                                       !- Schedule Type Limits Name
  ,                                       !- Interpolate to Timestep
  24,                                     !- Hour 1
  0,                                      !- Minute 1
  0;                                      !- Value Until Time 1

OS:Schedule:Day,
  {89f37eda-5599-48a4-9bd5-502a2cce40c6}, !- Handle
  0700|2100|StripMall|default|hoo Winter Design Day, !- Name
  {87996eea-0250-4d6f-ada8-2845171f5d4d}, !- Schedule Type Limits Name
  ,                                       !- Interpolate to Timestep
  24,                                     !- Hour 1
  0,                                      !- Minute 1
  0;                                      !- Value Until Time 1

OS:Schedule:Day,
  {ea449166-535a-4714-8129-642f5907ba95}, !- Handle
  Schedule Day 3,                         !- Name
  ,                                       !- Schedule Type Limits Name
  ,                                       !- Interpolate to Timestep
  24,                                     !- Hour 1
  0,                                      !- Minute 1
  0;                                      !- Value Until Time 1

OS:Schedule:Day,
  {89e2017d-19b3-4842-ad72-c35d08618c39}, !- Handle
  0700|2100|StripMall|default|hoo Summer Design Day, !- Name
  {87996eea-0250-4d6f-ada8-2845171f5d4d}, !- Schedule Type Limits Name
  ,                                       !- Interpolate to Timestep
  24,                                     !- Hour 1
  0,                                      !- Minute 1
  1;                                      !- Value Until Time 1

OS:DefaultScheduleSet,
  {5aafb795-8550-4604-82c3-40a99f355957}, !- Handle
  Building Hours of Operation,            !- Name
  {dc375bd7-d22a-4b27-a492-4cc04a211d88}, !- Hours of Operation Schedule Name
  ,                                       !- Number of People Schedule Name
  ,                                       !- People Activity Level Schedule Name
  ,                                       !- Lighting Schedule Name
  ,                                       !- Electric Equipment Schedule Name
  ,                                       !- Gas Equipment Schedule Name
  ,                                       !- Hot Water Equipment Schedule Name
  ,                                       !- Infiltration Schedule Name
  ,                                       !- Steam Equipment Schedule Name
  ;                                       !- Other Equipment Schedule Name

OS:ScheduleTypeLimits,
  {87996eea-0250-4d6f-ada8-2845171f5d4d}, !- Handle
  OnOff,                                  !- Name
  0,                                      !- Lower Limit Value {BasedOnField A4}
  1,                                      !- Upper Limit Value {BasedOnField A4}
  Discrete,                               !- Numeric Type
  Availability;                           !- Unit Type

OS:Schedule:Ruleset,
  {6ffe1bc3-d1d6-4b93-adae-9305ff81e532}, !- Handle
  0700|2100|StripMall|default|htg_setpoint, !- Name
  {38edf6dd-8043-4dd5-bd1d-2889d6c0d9b8}, !- Schedule Type Limits Name
  {85419012-8fae-499f-8cf3-9da796a7b3a6}, !- Default Day Schedule Name
  {de3b109f-f10c-4725-aebc-54151fdbc244}, !- Summer Design Day Schedule Name
  {31368169-1606-4701-943e-631daaace1a4}; !- Winter Design Day Schedule Name

OS:ScheduleTypeLimits,
  {38edf6dd-8043-4dd5-bd1d-2889d6c0d9b8}, !- Handle
  Thermostat Heating Setpoint Schedule Type Limits, !- Name
  0,                                      !- Lower Limit Value {BasedOnField A4}
  100,                                    !- Upper Limit Value {BasedOnField A4}
  Continuous,                             !- Numeric Type
  Temperature;                            !- Unit Type

OS:Schedule:Day,
  {85419012-8fae-499f-8cf3-9da796a7b3a6}, !- Handle
  0700|2100|StripMall|default|htg_setpoint |default, !- Name
  {38edf6dd-8043-4dd5-bd1d-2889d6c0d9b8}, !- Schedule Type Limits Name
  ,                                       !- Interpolate to Timestep
  6,                                      !- Hour 1
  0,                                      !- Minute 1
  15.6,                                   !- Value Until Time 1
  21,                                     !- Hour 2
  0,                                      !- Minute 2
  21.0000000000001,                       !- Value Until Time 2
  24,                                     !- Hour 3
  0,                                      !- Minute 3
  15.6;                                   !- Value Until Time 3

OS:Schedule:Day,
  {de3b109f-f10c-4725-aebc-54151fdbc244}, !- Handle
  0700|2100|StripMall|default|htg_setpoint Summer Design Day, !- Name
  {38edf6dd-8043-4dd5-bd1d-2889d6c0d9b8}, !- Schedule Type Limits Name
  ,                                       !- Interpolate to Timestep
  6,                                      !- Hour 1
  0,                                      !- Minute 1
  15.6,                                   !- Value Until Time 1
  21,                                     !- Hour 2
  0,                                      !- Minute 2
  21.0000000000001,                       !- Value Until Time 2
  24,                                     !- Hour 3
  0,                                      !- Minute 3
  15.6;                                   !- Value Until Time 3

OS:Schedule:Day,
  {31368169-1606-4701-943e-631daaace1a4}, !- Handle
  0700|2100|StripMall|default|htg_setpoint Winter Design Day, !- Name
  {38edf6dd-8043-4dd5-bd1d-2889d6c0d9b8}, !- Schedule Type Limits Name
  ,                                       !- Interpolate to Timestep
  24,                                     !- Hour 1
  0,                                      !- Minute 1
  15.6;                                   !- Value Until Time 1

OS:Schedule:Rule,
  {e2199991-5f9b-4a71-8d8c-8e6bc821c3a4}, !- Handle
  0700|2100|StripMall|default|htg_setpoint |1/1-12/31|Sat Rule, !- Name
  {6ffe1bc3-d1d6-4b93-adae-9305ff81e532}, !- Schedule Ruleset Name
  0,                                      !- Rule Order
  {aa51a7ef-902d-4e98-b832-1625c9faead6}, !- Day Schedule Name
  ,                                       !- Apply Sunday
  ,                                       !- Apply Monday
  ,                                       !- Apply Tuesday
  ,                                       !- Apply Wednesday
  ,                                       !- Apply Thursday
  ,                                       !- Apply Friday
  Yes,                                    !- Apply Saturday
  ,                                       !- Apply Holiday
  DateRange,                              !- Date Specification Type
  1,                                      !- Start Month
  1,                                      !- Start Day
  12,                                     !- End Month
  31;                                     !- End Day

OS:Schedule:Day,
  {aa51a7ef-902d-4e98-b832-1625c9faead6}, !- Handle
  0700|2100|StripMall|default|htg_setpoint |1/1-12/31|Sat, !- Name
  {38edf6dd-8043-4dd5-bd1d-2889d6c0d9b8}, !- Schedule Type Limits Name
  ,                                       !- Interpolate to Timestep
  6,                                      !- Hour 1
  0,                                      !- Minute 1
  15.6,                                   !- Value Until Time 1
  22,                                     !- Hour 2
  0,                                      !- Minute 2
  21.0000000000001,                       !- Value Until Time 2
  24,                                     !- Hour 3
  0,                                      !- Minute 3
  15.6;                                   !- Value Until Time 3

OS:Schedule:Rule,
  {ca51c51c-9c02-4d0e-a425-82518afc6a8a}, !- Handle
  0700|2100|StripMall|default|htg_setpoint |1/1-12/31|Sun Rule, !- Name
  {6ffe1bc3-d1d6-4b93-adae-9305ff81e532}, !- Schedule Ruleset Name
  1,                                      !- Rule Order
  {4adb9f6f-f2fd-421b-8572-c817223fac32}, !- Day Schedule Name
  Yes,                                    !- Apply Sunday
  ,                                       !- Apply Monday
  ,                                       !- Apply Tuesday
  ,                                       !- Apply Wednesday
  ,                                       !- Apply Thursday
  ,                                       !- Apply Friday
  ,                                       !- Apply Saturday
  ,                                       !- Apply Holiday
  DateRange,                              !- Date Specification Type
  1,                                      !- Start Month
  1,                                      !- Start Day
  12,                                     !- End Month
  31;                                     !- End Day

OS:Schedule:Day,
  {4adb9f6f-f2fd-421b-8572-c817223fac32}, !- Handle
  0700|2100|StripMall|default|htg_setpoint |1/1-12/31|Sun, !- Name
  {38edf6dd-8043-4dd5-bd1d-2889d6c0d9b8}, !- Schedule Type Limits Name
  ,                                       !- Interpolate to Timestep
  8,                                      !- Hour 1
  0,                                      !- Minute 1
  15.6,                                   !- Value Until Time 1
  19,                                     !- Hour 2
  0,                                      !- Minute 2
  21.0000000000001,                       !- Value Until Time 2
  24,                                     !- Hour 3
  0,                                      !- Minute 3
  15.6;                                   !- Value Until Time 3

OS:Schedule:Ruleset,
  {91aae72b-6b4d-46fa-9354-0ec9b982438d}, !- Handle
  0700|2100|StripMall|default|activity,   !- Name
  {ee1ec591-2efd-4b84-aed3-04402c00985c}, !- Schedule Type Limits Name
  {0d93dc0b-647d-4a06-8c10-adfc84fd8323}, !- Default Day Schedule Name
  {90d23783-d3b4-45d9-a25b-589edf381eae}, !- Summer Design Day Schedule Name
  {fe651c30-9126-4cd6-b732-ee86d2c95135}; !- Winter Design Day Schedule Name

OS:ScheduleTypeLimits,
  {ee1ec591-2efd-4b84-aed3-04402c00985c}, !- Handle
  People Activity Type Limits,            !- Name
  0,                                      !- Lower Limit Value {BasedOnField A4}
  ,                                       !- Upper Limit Value {BasedOnField A4}
  Continuous,                             !- Numeric Type
  ActivityLevel;                          !- Unit Type

OS:Schedule:Day,
  {0d93dc0b-647d-4a06-8c10-adfc84fd8323}, !- Handle
  0700|2100|StripMall|default|activity |default, !- Name
  {ee1ec591-2efd-4b84-aed3-04402c00985c}, !- Schedule Type Limits Name
  ,                                       !- Interpolate to Timestep
  24,                                     !- Hour 1
  0,                                      !- Minute 1
  120;                                    !- Value Until Time 1

OS:Schedule:Day,
  {90d23783-d3b4-45d9-a25b-589edf381eae}, !- Handle
  0700|2100|StripMall|default|activity Summer Design Day, !- Name
  {ee1ec591-2efd-4b84-aed3-04402c00985c}, !- Schedule Type Limits Name
  ,                                       !- Interpolate to Timestep
  24,                                     !- Hour 1
  0,                                      !- Minute 1
  120;                                    !- Value Until Time 1

OS:Schedule:Day,
  {fe651c30-9126-4cd6-b732-ee86d2c95135}, !- Handle
  0700|2100|StripMall|default|activity Winter Design Day, !- Name
  {ee1ec591-2efd-4b84-aed3-04402c00985c}, !- Schedule Type Limits Name
  ,                                       !- Interpolate to Timestep
  24,                                     !- Hour 1
  0,                                      !- Minute 1
  120;                                    !- Value Until Time 1

OS:Schedule:Ruleset,
  {cebffee3-9a57-4678-9282-7e65226b0f20}, !- Handle
  0700|2100|StripMall|default|thermal_ctrl, !- Name
  {c48935a0-58b9-4299-acde-d4b143af9d67}, !- Schedule Type Limits Name
  {0764ecec-dd0d-4e6a-9814-4178466ae36a}, !- Default Day Schedule Name
  {de1381ae-fffb-4971-8d23-97968e61c346}, !- Summer Design Day Schedule Name
  {04f573e1-9ddf-4f4f-a49f-9a1553498bd2}; !- Winter Design Day Schedule Name

OS:ScheduleTypeLimits,
  {c48935a0-58b9-4299-acde-d4b143af9d67}, !- Handle
  Dimensionless Schedule Type Limits,     !- Name
  ,                                       !- Lower Limit Value {BasedOnField A4}
  ,                                       !- Upper Limit Value {BasedOnField A4}
  Continuous,                             !- Numeric Type
  Dimensionless;                          !- Unit Type

OS:Schedule:Day,
  {0764ecec-dd0d-4e6a-9814-4178466ae36a}, !- Handle
  0700|2100|StripMall|default|thermal_ctrl |default, !- Name
  {c48935a0-58b9-4299-acde-d4b143af9d67}, !- Schedule Type Limits Name
  ,                                       !- Interpolate to Timestep
  24,                                     !- Hour 1
  0,                                      !- Minute 1
  4;                                      !- Value Until Time 1

OS:Schedule:Day,
  {de1381ae-fffb-4971-8d23-97968e61c346}, !- Handle
  0700|2100|StripMall|default|thermal_ctrl Summer Design Day, !- Name
  {c48935a0-58b9-4299-acde-d4b143af9d67}, !- Schedule Type Limits Name
  ,                                       !- Interpolate to Timestep
  24,                                     !- Hour 1
  0,                                      !- Minute 1
  4;                                      !- Value Until Time 1

OS:Schedule:Day,
  {04f573e1-9ddf-4f4f-a49f-9a1553498bd2}, !- Handle
  0700|2100|StripMall|default|thermal_ctrl Winter Design Day, !- Name
  {c48935a0-58b9-4299-acde-d4b143af9d67}, !- Schedule Type Limits Name
  ,                                       !- Interpolate to Timestep
  24,                                     !- Hour 1
  0,                                      !- Minute 1
  4;                                      !- Value Until Time 1

OS:Schedule:Ruleset,
  {b065fc5a-b416-4801-94fc-549711a9d673}, !- Handle
  0700|2100|StripMall|default|lighting,   !- Name
  {8f8f2c6b-3496-4ec0-a0b2-673f5b910db2}, !- Schedule Type Limits Name
  {c76873f8-3742-45c7-9f21-7a7c6d1d2a3f}, !- Default Day Schedule Name
  {69689ae1-2024-425e-b5df-00c56203321c}, !- Summer Design Day Schedule Name
  {8973a87a-a0ab-4abc-bf61-cc8a5071053a}; !- Winter Design Day Schedule Name

OS:ScheduleTypeLimits,
  {8f8f2c6b-3496-4ec0-a0b2-673f5b910db2}, !- Handle
  Lights Schedule Type Limits,            !- Name
  0,                                      !- Lower Limit Value {BasedOnField A4}
  1,                                      !- Upper Limit Value {BasedOnField A4}
  Continuous,                             !- Numeric Type
  Dimensionless;                          !- Unit Type

OS:Schedule:Day,
  {c76873f8-3742-45c7-9f21-7a7c6d1d2a3f}, !- Handle
  0700|2100|StripMall|default|lighting |default, !- Name
  {8f8f2c6b-3496-4ec0-a0b2-673f5b910db2}, !- Schedule Type Limits Name
  ,                                       !- Interpolate to Timestep
  7,                                      !- Hour 1
  0,                                      !- Minute 1
  0.05,                                   !- Value Until Time 1
  8,                                      !- Hour 2
  0,                                      !- Minute 2
  0.2,                                    !- Value Until Time 2
  9,                                      !- Hour 3
  0,                                      !- Minute 3
  0.5,                                    !- Value Until Time 3
  18,                                     !- Hour 4
  0,                                      !- Minute 4
  0.9,                                    !- Value Until Time 4
  20,                                     !- Hour 5
  0,                                      !- Minute 5
  0.6,                                    !- Value Until Time 5
  21,                                     !- Hour 6
  0,                                      !- Minute 6
  0.5,                                    !- Value Until Time 6
  22,                                     !- Hour 7
  0,                                      !- Minute 7
  0.2,                                    !- Value Until Time 7
  24,                                     !- Hour 8
  0,                                      !- Minute 8
  0.05;                                   !- Value Until Time 8

OS:Schedule:Day,
  {69689ae1-2024-425e-b5df-00c56203321c}, !- Handle
  0700|2100|StripMall|default|lighting Summer Design Day, !- Name
  {8f8f2c6b-3496-4ec0-a0b2-673f5b910db2}, !- Schedule Type Limits Name
  ,                                       !- Interpolate to Timestep
  7,                                      !- Hour 1
  0,                                      !- Minute 1
  0.05,                                   !- Value Until Time 1
  8,                                      !- Hour 2
  0,                                      !- Minute 2
  0.2,                                    !- Value Until Time 2
  21,                                     !- Hour 3
  0,                                      !- Minute 3
  1,                                      !- Value Until Time 3
  22,                                     !- Hour 4
  0,                                      !- Minute 4
  0.2,                                    !- Value Until Time 4
  24,                                     !- Hour 5
  0,                                      !- Minute 5
  0.05;                                   !- Value Until Time 5

OS:Schedule:Day,
  {8973a87a-a0ab-4abc-bf61-cc8a5071053a}, !- Handle
  0700|2100|StripMall|default|lighting Winter Design Day, !- Name
  {8f8f2c6b-3496-4ec0-a0b2-673f5b910db2}, !- Schedule Type Limits Name
  ,                                       !- Interpolate to Timestep
  24,                                     !- Hour 1
  0,                                      !- Minute 1
  0.05;                                   !- Value Until Time 1

OS:Schedule:Rule,
  {acbb20b4-0238-4cda-8c19-3df9cc2f4b73}, !- Handle
  0700|2100|StripMall|default|lighting |1/1-12/31|Sat Rule, !- Name
  {b065fc5a-b416-4801-94fc-549711a9d673}, !- Schedule Ruleset Name
  0,                                      !- Rule Order
  {99a42f05-55e1-420b-887f-778f880ff7a8}, !- Day Schedule Name
  ,                                       !- Apply Sunday
  ,                                       !- Apply Monday
  ,                                       !- Apply Tuesday
  ,                                       !- Apply Wednesday
  ,                                       !- Apply Thursday
  ,                                       !- Apply Friday
  Yes,                                    !- Apply Saturday
  ,                                       !- Apply Holiday
  DateRange,                              !- Date Specification Type
  1,                                      !- Start Month
  1,                                      !- Start Day
  12,                                     !- End Month
  31;                                     !- End Day

OS:Schedule:Day,
  {99a42f05-55e1-420b-887f-778f880ff7a8}, !- Handle
  0700|2100|StripMall|default|lighting |1/1-12/31|Sat, !- Name
  {8f8f2c6b-3496-4ec0-a0b2-673f5b910db2}, !- Schedule Type Limits Name
  ,                                       !- Interpolate to Timestep
  7,                                      !- Hour 1
  0,                                      !- Minute 1
  0.05,                                   !- Value Until Time 1
  8,                                      !- Hour 2
  0,                                      !- Minute 2
  0.1,                                    !- Value Until Time 2
  9,                                      !- Hour 3
  0,                                      !- Minute 3
  0.3,                                    !- Value Until Time 3
  10,                                     !- Hour 4
  0,                                      !- Minute 4
  0.6,                                    !- Value Until Time 4
  18,                                     !- Hour 5
  0,                                      !- Minute 5
  0.9,                                    !- Value Until Time 5
  19,                                     !- Hour 6
  0,                                      !- Minute 6
  0.5,                                    !- Value Until Time 6
  21,                                     !- Hour 7
  0,                                      !- Minute 7
  0.3,                                    !- Value Until Time 7