
OS:Version,
  {b4148c00-0d1c-446e-9089-dfcde1ece74b}, !- Handle
  1.5.5;                                  !- Version Identifier

OS:ClimateZones,
  {135edfab-17e7-40db-a436-27d385a8cd6d}, !- Handle
  ,                                       !- Active Institution
  ,                                       !- Active Year
  ASHRAE,                                 !- Climate Zone Institution Name 1
  ANSI/ASHRAE Standard 169,               !- Climate Zone Document Name 1
  2006,                                   !- Climate Zone Document Year 1
  ,                                       !- Climate Zone Value 1
  CEC,                                    !- Climate Zone Institution Name 2
  California Climate Zone Descriptions,   !- Climate Zone Document Name 2
  1995,                                   !- Climate Zone Document Year 2
  ;                                       !- Climate Zone Value 2

OS:YearDescription,
  {513d8dda-86cb-442a-b01c-1f7f0e0ac70e}; !- Handle

OS:RadianceParameters,
  {270a96f1-3c86-4b75-a667-cdf22790e2c8}, !- Handle
  1,                                      !- Accumulated Rays per Record
  0,                                      !- Direct Threshold
  1,                                      !- Direct Certainty
  1,                                      !- Direct Jitter
  1,                                      !- Direct Pretest
  6,                                      !- Ambient Bounces VMX
  2,                                      !- Ambient Bounces DMX
  4050,                                   !- Ambient Divisions VMX
  512,                                    !- Ambient Divisions DMX
  256,                                    !- Ambient Supersamples
  0.001,                                  !- Limit Weight VMX
  0.001,                                  !- Limit Weight DMX
  500,                                    !- Klems Sampling Density
  146;                                    !- Sky Discretization Resolution

OS:SimulationControl,
  {2c487a4c-bac9-4ac5-b669-1e49d9da7c2b}, !- Handle
  ,                                       !- Do Zone Sizing Calculation
  ,                                       !- Do System Sizing Calculation
  ,                                       !- Do Plant Sizing Calculation
  No,                                     !- Run Simulation for Sizing Periods
  ,                                       !- Run Simulation for Weather File Run Periods
  0.04,                                   !- Loads Convergence Tolerance Value
  ,                                       !- Temperature Convergence Tolerance Value {deltaC}
  ,                                       !- Solar Distribution
  ,                                       !- Maximum Number of Warmup Days
  2;                                      !- Minimum Number of Warmup Days

OS:Sizing:Parameters,
  {dde5af6f-7923-4600-a28a-7556673a0266}, !- Handle
  1.25,                                   !- Heating Sizing Factor
  1.15;                                   !- Cooling Sizing Factor

OS:ProgramControl,
  {05027a99-f2b3-4aeb-afc6-1425fbb4371d}; !- Handle

OS:Timestep,
  {4ebc9f1e-4707-402e-9844-67eb1ffbd522}, !- Handle
  2;                                      !- Number of Timesteps per Hour

OS:OutputControl:ReportingTolerances,
  {65797aa2-06a9-45fe-b69d-bc6e060399d3}; !- Handle

OS:ConvergenceLimits,
  {9fc11aba-8822-4f3d-970c-46391ba4040d}; !- Handle

OS:ShadowCalculation,
  {ca758bea-4416-4626-9bba-3d8795c79bd6}, !- Handle
  7,                                      !- Calculation Frequency
  15000;                                  !- Maximum Figures in Shadow Overlap Calculations

OS:SurfaceConvectionAlgorithm:Inside,
  {aaabfc36-718a-4ab0-b622-f186ebb45230}, !- Handle
  TARP;                                   !- Algorithm

OS:SurfaceConvectionAlgorithm:Outside,
  {9a0a9f6f-4bbd-4b12-a121-9492a1fcd7d6}, !- Handle
  DOE-2;                                  !- Algorithm

OS:HeatBalanceAlgorithm,
  {9d93e563-e1e0-46d7-9e39-d1c8aceb7212}, !- Handle
  ConductionTransferFunction,             !- Algorithm
  200;                                    !- Surface Temperature Upper Limit {F}

OS:ZoneAirHeatBalanceAlgorithm,
  {8520d93e-310f-4696-9bcd-36228bfdd743}, !- Handle
  AnalyticalSolution;                     !- Algorithm

OS:ZoneAirContaminantBalance,
  {eb5fc3ae-fb22-4160-8fcb-3e3b22b000d3}; !- Handle

OS:ZoneCapacitanceMultiplier:ResearchSpecial,
  {4020ce4f-5a7a-4849-8028-8305d7b751b1}, !- Handle
  ,                                       !- Temperature Capacity Multiplier
  ,                                       !- Humidity Capacity Multiplier
  ;                                       !- Carbon Dioxide Capacity Multiplier

OS:RunPeriod,
  {28df894d-6af9-4fb8-8f56-df1753344aa3}, !- Handle
  Run Period 1,                           !- Name
  1,                                      !- Begin Month
  1,                                      !- Begin Day of Month
  12,                                     !- End Month
  31,                                     !- End Day of Month
  ,                                       !- Use Weather File Holidays and Special Days
  ,                                       !- Use Weather File Daylight Saving Period
  ,                                       !- Apply Weekend Holiday Rule
  ,                                       !- Use Weather File Rain Indicators
  ,                                       !- Use Weather File Snow Indicators
  ;                                       !- Number of Times Runperiod to be Repeated

OS:Building,
  {bf305633-c5a1-4881-9edf-ca5e1a8e1274}, !- Handle
  Building 1,                             !- Name
  ,                                       !- Building Sector Type
  ,                                       !- North Axis {deg}
  ,                                       !- Nominal Floor to Floor Height {m}
  ,                                       !- Space Type Name
  ,                                       !- Default Construction Set Name
  {591e8f6a-6dde-429f-a8fd-44b95e7e4eae}, !- Default Schedule Set Name
  ,                                       !- Standards Number of Stories
  ,                                       !- Standards Number of Above Ground Stories
  StripMall;                              !- Standards Building Type

OS:LifeCycleCost:Parameters,
  {231cf8a0-f0e7-4251-a99f-11f0d464e661}, !- Handle
  FEMP,                                   !- Analysis Type
  ,                                       !- Discounting Convention
  ,                                       !- Inflation Approach
  ,                                       !- Real Discount Rate
  ,                                       !- Nominal Discount Rate
  ,                                       !- Inflation
  ,                                       !- Base Date Month
  ,                                       !- Base Date Year
  ,                                       !- Service Date Month
  ,                                       !- Service Date Year
  ,                                       !- Length of Study Period in Years
  ,                                       !- Tax Rate
  ,                                       !- Depreciation Method
  Yes;                                    !- Use NIST Fuel Escalation Rates

OS:Facility,
  {3ba8e45b-b833-44eb-a723-ea6c3946dc96}; !- Handle

OS:SpaceType,
  {73e252bb-9e56-4735-b014-101bfea19a35}, !- Handle
  StripMall|WholeBuilding|DOE Ref Pre-1980|ASHRAE 169-2006-5A, !- Name
  {58fff13c-2d60-4cd8-93ac-946b912360d3}, !- Default Construction Set Name
  {dbdee5ab-c341-456f-b168-4e7fe5338646}, !- Default Schedule Set Name
  {733cf70f-1c97-4e6d-b46b-bf87700895a9}, !- Group Rendering Name
  {bc382664-e6a0-48af-96ee-17602e6fcf48}, !- Design Specification Outdoor Air Object Name
  StripMall,                              !- Standards Building Type
  WholeBuilding;                          !- Standards Space Type

OS:Rendering:Color,
  {733cf70f-1c97-4e6d-b46b-bf87700895a9}, !- Handle
  Rendering Color 1,                      !- Name
  171,                                    !- Rendering Red Value
  222,                                    !- Rendering Green Value
  78;                                     !- Rendering Blue Value

OS:Schedule:Ruleset,
  {96276c62-9252-4eb7-9cf8-2037f14aa896}, !- Handle
  0700|2100|StripMall|default|hoo,        !- Name
  {79970c48-3dcc-4ed8-8560-b3513dc4c383}, !- Schedule Type Limits Name
  {53fa183b-ee20-4817-80f0-86309d4e864e}, !- Default Day Schedule Name
  {a757658d-ed1e-4b47-ac5d-4a70da716616}, !- Summer Design Day Schedule Name
  {d0c58110-79cd-481a-92db-b20e41dbbb1b}; !- Winter Design Day Schedule Name

OS:Schedule:Day,
  {53fa183b-ee20-4817-80f0-86309d4e864e}, !- Handle
  0700|2100|StripMall|default|hoo Schedule Week Day, !- Name
  {79970c48-3dcc-4ed8-8560-b3513dc4c383}, !- Schedule Type Limits Name
  ,                                       !- Interpolate to Timestep
  7,                                      !- Hour 1
  0,                                      !- Minute 1
  0,                                      !- Value Until Time 1
  21,                                     !- Hour 2
  0,                                      !- Minute 2
  1,                                      !- Value Until Time 2
  24,                                     !- Hour 3
  0,                                      !- Minute 3
  0;                                      !- Value Until Time 3

OS:Schedule:Day,
  {f4c2c7a0-65f1-43c1-938e-d5af3b89b23b}, !- Handle
  Schedule Day 2,                         !- Name
  ,                                       !- Schedule Type Limits Name
  ,                                       !- Interpolate to Timestep
  24,                                     !- Hour 1
  0,                                      !- Minute 1
  0;                                      !- Value Until Time 1

OS:Schedule:Day,
  {d0c58110-79cd-481a-92db-b20e41dbbb1b}, !- Handle
  0700|2100|StripMall|default|hoo Winter Design Day, !- Name
  {79970c48-3dcc-4ed8-8560-b3513dc4c383}, !- Schedule Type Limits Name
  ,                                       !- Interpolate to Timestep
  24,                                     !- Hour 1
  0,                                      !- Minute 1
  0;                                      !- Value Until Time 1

OS:Schedule:Day,
  {7205412a-bf21-4105-ad1a-a57795708666}, !- Handle
  Schedule Day 3,                         !- Name
  ,                                       !- Schedule Type Limits Name
  ,                                       !- Interpolate to Timestep
  24,                                     !- Hour 1
  0,                                      !- Minute 1
  0;                                      !- Value Until Time 1

OS:Schedule:Day,
  {a757658d-ed1e-4b47-ac5d-4a70da716616}, !- Handle
  0700|2100|StripMall|default|hoo Summer Design Day, !- Name
  {79970c48-3dcc-4ed8-8560-b3513dc4c383}, !- Schedule Type Limits Name
  ,                                       !- Interpolate to Timestep
  24,                                     !- Hour 1
  0,                                      !- Minute 1
  1;                                      !- Value Until Time 1

OS:DefaultScheduleSet,
  {591e8f6a-6dde-429f-a8fd-44b95e7e4eae}, !- Handle
  Building Hours of Operation,            !- Name
  {96276c62-9252-4eb7-9cf8-2037f14aa896}, !- Hours of Operation Schedule Name
  ,                                       !- Number of People Schedule Name
  ,                                       !- People Activity Level Schedule Name
  ,                                       !- Lighting Schedule Name
  ,                                       !- Electric Equipment Schedule Name
  ,                                       !- Gas Equipment Schedule Name
  ,                                       !- Hot Water Equipment Schedule Name
  ,                                       !- Infiltration Schedule Name
  ,                                       !- Steam Equipment Schedule Name
  ;                                       !- Other Equipment Schedule Name

OS:ScheduleTypeLimits,
  {79970c48-3dcc-4ed8-8560-b3513dc4c383}, !- Handle
  OnOff,                                  !- Name
  0,                                      !- Lower Limit Value {BasedOnField A4}
  1,                                      !- Upper Limit Value {BasedOnField A4}
  Discrete,                               !- Numeric Type
  Availability;                           !- Unit Type

OS:Schedule:Ruleset,
  {f5909efd-3d02-4dc5-bb5f-82ad93b5d6a6}, !- Handle
  0700|2100|StripMall|default|htg_setpoint, !- Name
  {9c3a0714-ed65-4d6f-a0fc-dcdec867d3d0}, !- Schedule Type Limits Name
  {d7846795-1dcf-4ab9-953b-1483cb52c035}, !- Default Day Schedule Name
  {a242ce86-caa2-4d64-b438-1bf35ba7e458}, !- Summer Design Day Schedule Name
  {6a894916-5cc1-4379-9fe3-bc6ffcf0fbcd}; !- Winter Design Day Schedule Name

OS:ScheduleTypeLimits,
  {9c3a0714-ed65-4d6f-a0fc-dcdec867d3d0}, !- Handle
  Thermostat Heating Setpoint Schedule Type Limits, !- Name
  0,                                      !- Lower Limit Value {BasedOnField A4}
  100,                                    !- Upper Limit Value {BasedOnField A4}
  Continuous,                             !- Numeric Type
  Temperature;                            !- Unit Type

OS:Schedule:Day,
  {d7846795-1dcf-4ab9-953b-1483cb52c035}, !- Handle
  0700|2100|StripMall|default|htg_setpoint |default, !- Name
  {9c3a0714-ed65-4d6f-a0fc-dcdec867d3d0}, !- Schedule Type Limits Name
  ,                                       !- Interpolate to Timestep
  6,                                      !- Hour 1
  0,                                      !- Minute 1
  15.6,                                   !- Value Until Time 1
  21,                                     !- Hour 2
  0,                                      !- Minute 2
  21.0000000000001,                       !- Value Until Time 2
  24,                                     !- Hour 3
  0,                                      !- Minute 3
  15.6;                                   !- Value Until Time 3

OS:Schedule:Day,
  {a242ce86-caa2-4d64-b438-1bf35ba7e458}, !- Handle
  0700|2100|StripMall|default|htg_setpoint Summer Design Day, !- Name
  {9c3a0714-ed65-4d6f-a0fc-dcdec867d3d0}, !- Schedule Type Limits Name
  ,                                       !- Interpolate to Timestep
  6,                                      !- Hour 1
  0,                                      !- Minute 1
  15.6,                                   !- Value Until Time 1
  21,                                     !- Hour 2
  0,                                      !- Minute 2
  21.0000000000001,                       !- Value Until Time 2
  24,                                     !- Hour 3
  0,                                      !- Minute 3
  15.6;                                   !- Value Until Time 3

OS:Schedule:Day,
  {6a894916-5cc1-4379-9fe3-bc6ffcf0fbcd}, !- Handle
  0700|2100|StripMall|default|htg_setpoint Winter Design Day, !- Name
  {9c3a0714-ed65-4d6f-a0fc-dcdec867d3d0}, !- Schedule Type Limits Name
  ,                                       !- Interpolate to Timestep
  24,                                     !- Hour 1
  0,                                      !- Minute 1
  15.6;                                   !- Value Until Time 1

OS:Schedule:Rule,
  {639a2c3e-1b2e-451d-88ea-8a92a3019c31}, !- Handle
  0700|2100|StripMall|default|htg_setpoint |1/1-12/31|Sat Rule, !- Name
  {f5909efd-3d02-4dc5-bb5f-82ad93b5d6a6}, !- Schedule Ruleset Name
  0,                                      !- Rule Order
  {e8c0c9a7-050f-45d1-8af2-77aefa880141}, !- Day Schedule Name
  ,                                       !- Apply Sunday
  ,                                       !- Apply Monday
  ,                                       !- Apply Tuesday
  ,                                       !- Apply Wednesday
  ,                                       !- Apply Thursday
  ,                                       !- Apply Friday
  Yes,                                    !- Apply Saturday
  ,                                       !- Apply Holiday
  DateRange,                              !- Date Specification Type
  1,                                      !- Start Month
  1,                                      !- Start Day
  12,                                     !- End Month
  31;                                     !- End Day

OS:Schedule:Day,
  {e8c0c9a7-050f-45d1-8af2-77aefa880141}, !- Handle
  0700|2100|StripMall|default|htg_setpoint |1/1-12/31|Sat, !- Name
  {9c3a0714-ed65-4d6f-a0fc-dcdec867d3d0}, !- Schedule Type Limits Name
  ,                                       !- Interpolate to Timestep
  6,                                      !- Hour 1
  0,                                      !- Minute 1
  15.6,                                   !- Value Until Time 1
  22,                                     !- Hour 2
  0,                                      !- Minute 2
  21.0000000000001,                       !- Value Until Time 2
  24,                                     !- Hour 3
  0,                                      !- Minute 3
  15.6;                                   !- Value Until Time 3

OS:Schedule:Rule,
  {801b3973-4aca-4915-91ee-6c9927f3236c}, !- Handle
  0700|2100|StripMall|default|htg_setpoint |1/1-12/31|Sun Rule, !- Name
  {f5909efd-3d02-4dc5-bb5f-82ad93b5d6a6}, !- Schedule Ruleset Name
  1,                                      !- Rule Order
  {425efc58-d142-4a90-ae46-7139ea9627e8}, !- Day Schedule Name
  Yes,                                    !- Apply Sunday
  ,                                       !- Apply Monday
  ,                                       !- Apply Tuesday
  ,                                       !- Apply Wednesday
  ,                                       !- Apply Thursday
  ,                                       !- Apply Friday
  ,                                       !- Apply Saturday
  ,                                       !- Apply Holiday
  DateRange,                              !- Date Specification Type
  1,                                      !- Start Month
  1,                                      !- Start Day
  12,                                     !- End Month
  31;                                     !- End Day

OS:Schedule:Day,
  {425efc58-d142-4a90-ae46-7139ea9627e8}, !- Handle
  0700|2100|StripMall|default|htg_setpoint |1/1-12/31|Sun, !- Name
  {9c3a0714-ed65-4d6f-a0fc-dcdec867d3d0}, !- Schedule Type Limits Name
  ,                                       !- Interpolate to Timestep
  8,                                      !- Hour 1
  0,                                      !- Minute 1
  15.6,                                   !- Value Until Time 1
  19,                                     !- Hour 2
  0,                                      !- Minute 2
  21.0000000000001,                       !- Value Until Time 2
  24,                                     !- Hour 3
  0,                                      !- Minute 3
  15.6;                                   !- Value Until Time 3

OS:Schedule:Ruleset,
  {17de954f-48a4-4b4b-ae7a-09e3ffbee99a}, !- Handle
  0700|2100|StripMall|default|activity,   !- Name
  {54a04a60-e5a0-4d53-b366-03172ac270c0}, !- Schedule Type Limits Name
  {7501369e-9076-46a1-aa7d-91bfadf660e5}, !- Default Day Schedule Name
  {37a73aad-f494-4656-9e19-ccc4475eaa6e}, !- Summer Design Day Schedule Name
  {b9cfe218-0c44-403a-81f4-92f8d41f5401}; !- Winter Design Day Schedule Name

OS:ScheduleTypeLimits,
  {54a04a60-e5a0-4d53-b366-03172ac270c0}, !- Handle
  People Activity Type Limits,            !- Name
  0,                                      !- Lower Limit Value {BasedOnField A4}
  ,                                       !- Upper Limit Value {BasedOnField A4}
  Continuous,                             !- Numeric Type
  ActivityLevel;                          !- Unit Type

OS:Schedule:Day,
  {7501369e-9076-46a1-aa7d-91bfadf660e5}, !- Handle
  0700|2100|StripMall|default|activity |default, !- Name
  {54a04a60-e5a0-4d53-b366-03172ac270c0}, !- Schedule Type Limits Name
  ,                                       !- Interpolate to Timestep
  24,                                     !- Hour 1
  0,                                      !- Minute 1
  120;                                    !- Value Until Time 1

OS:Schedule:Day,
  {37a73aad-f494-4656-9e19-ccc4475eaa6e}, !- Handle
  0700|2100|StripMall|default|activity Summer Design Day, !- Name
  {54a04a60-e5a0-4d53-b366-03172ac270c0}, !- Schedule Type Limits Name
  ,                                       !- Interpolate to Timestep
  24,                                     !- Hour 1
  0,                                      !- Minute 1
  120;                                    !- Value Until Time 1

OS:Schedule:Day,
  {b9cfe218-0c44-403a-81f4-92f8d41f5401}, !- Handle
  0700|2100|StripMall|default|activity Winter Design Day, !- Name
  {54a04a60-e5a0-4d53-b366-03172ac270c0}, !- Schedule Type Limits Name
  ,                                       !- Interpolate to Timestep
  24,                                     !- Hour 1
  0,                                      !- Minute 1
  120;                                    !- Value Until Time 1

OS:Schedule:Ruleset,
  {5acd4ac9-877c-428b-9780-692b1d5459e7}, !- Handle
  0700|2100|StripMall|default|thermal_ctrl, !- Name
  {6356f29a-65be-4f08-ae96-a5e702d9cc45}, !- Schedule Type Limits Name
  {d8a96b8e-978a-44d9-88c5-a5ee923caaf8}, !- Default Day Schedule Name
  {cc9fe50b-c339-46ed-b676-67d72dc96511}, !- Summer Design Day Schedule Name
  {5cfbd663-bb43-4e18-a9d6-0b25cea11eda}; !- Winter Design Day Schedule Name

OS:ScheduleTypeLimits,
  {6356f29a-65be-4f08-ae96-a5e702d9cc45}, !- Handle
  Dimensionless Schedule Type Limits,     !- Name
  ,                                       !- Lower Limit Value {BasedOnField A4}
  ,                                       !- Upper Limit Value {BasedOnField A4}
  Continuous,                             !- Numeric Type
  Dimensionless;                          !- Unit Type

OS:Schedule:Day,
  {d8a96b8e-978a-44d9-88c5-a5ee923caaf8}, !- Handle
  0700|2100|StripMall|default|thermal_ctrl |default, !- Name
  {6356f29a-65be-4f08-ae96-a5e702d9cc45}, !- Schedule Type Limits Name
  ,                                       !- Interpolate to Timestep
  24,                                     !- Hour 1
  0,                                      !- Minute 1
  4;                                      !- Value Until Time 1

OS:Schedule:Day,
  {cc9fe50b-c339-46ed-b676-67d72dc96511}, !- Handle
  0700|2100|StripMall|default|thermal_ctrl Summer Design Day, !- Name
  {6356f29a-65be-4f08-ae96-a5e702d9cc45}, !- Schedule Type Limits Name
  ,                                       !- Interpolate to Timestep
  24,                                     !- Hour 1
  0,                                      !- Minute 1
  4;                                      !- Value Until Time 1

OS:Schedule:Day,
  {5cfbd663-bb43-4e18-a9d6-0b25cea11eda}, !- Handle
  0700|2100|StripMall|default|thermal_ctrl Winter Design Day, !- Name
  {6356f29a-65be-4f08-ae96-a5e702d9cc45}, !- Schedule Type Limits Name
  ,                                       !- Interpolate to Timestep
  24,                                     !- Hour 1
  0,                                      !- Minute 1
  4;                                      !- Value Until Time 1

OS:Schedule:Ruleset,
  {1aa2be37-7afd-4e54-ab11-c574f0859812}, !- Handle
  0700|2100|StripMall|default|lighting,   !- Name
  {c3f4d95f-9d02-4d5e-a7e3-593d0a8c439a}, !- Schedule Type Limits Name
  {5414c800-dd1c-4243-8741-bf4fa04ba7c4}, !- Default Day Schedule Name
  {3d543be0-691a-4384-a540-d75dd73b0185}, !- Summer Design Day Schedule Name
  {3d166fec-c77a-4029-ba18-96b5d7add53b}; !- Winter Design Day Schedule Name

OS:ScheduleTypeLimits,
  {c3f4d95f-9d02-4d5e-a7e3-593d0a8c439a}, !- Handle
  Lights Schedule Type Limits,            !- Name
  0,                                      !- Lower Limit Value {BasedOnField A4}
  1,                                      !- Upper Limit Value {BasedOnField A4}
  Continuous,                             !- Numeric Type
  Dimensionless;                          !- Unit Type

OS:Schedule:Day,
  {5414c800-dd1c-4243-8741-bf4fa04ba7c4}, !- Handle
  0700|2100|StripMall|default|lighting |default, !- Name
  {c3f4d95f-9d02-4d5e-a7e3-593d0a8c439a}, !- Schedule Type Limits Name
  ,                                       !- Interpolate to Timestep
  7,                                      !- Hour 1
  0,                                      !- Minute 1
  0.05,                                   !- Value Until Time 1
  8,                                      !- Hour 2
  0,                                      !- Minute 2
  0.2,                                    !- Value Until Time 2
  9,                                      !- Hour 3
  0,                                      !- Minute 3
  0.5,                                    !- Value Until Time 3
  18,                                     !- Hour 4
  0,                                      !- Minute 4
  0.9,                                    !- Value Until Time 4
  20,                                     !- Hour 5
  0,                                      !- Minute 5
  0.6,                                    !- Value Until Time 5
  21,                                     !- Hour 6
  0,                                      !- Minute 6
  0.5,                                    !- Value Until Time 6
  22,                                     !- Hour 7
  0,                                      !- Minute 7
  0.2,                                    !- Value Until Time 7
  24,                                     !- Hour 8
  0,                                      !- Minute 8
  0.05;                                   !- Value Until Time 8

OS:Schedule:Day,
  {3d543be0-691a-4384-a540-d75dd73b0185}, !- Handle
  0700|2100|StripMall|default|lighting Summer Design Day, !- Name
  {c3f4d95f-9d02-4d5e-a7e3-593d0a8c439a}, !- Schedule Type Limits Name
  ,                                       !- Interpolate to Timestep
  7,                                      !- Hour 1
  0,                                      !- Minute 1
  0.05,                                   !- Value Until Time 1
  8,                                      !- Hour 2
  0,                                      !- Minute 2
  0.2,                                    !- Value Until Time 2
  21,                                     !- Hour 3
  0,                                      !- Minute 3
  1,                                      !- Value Until Time 3
  22,                                     !- Hour 4
  0,                                      !- Minute 4
  0.2,                                    !- Value Until Time 4
  24,                                     !- Hour 5
  0,                                      !- Minute 5
  0.05;                                   !- Value Until Time 5

OS:Schedule:Day,
  {3d166fec-c77a-4029-ba18-96b5d7add53b}, !- Handle
  0700|2100|StripMall|default|lighting Winter Design Day, !- Name
  {c3f4d95f-9d02-4d5e-a7e3-593d0a8c439a}, !- Schedule Type Limits Name
  ,                                       !- Interpolate to Timestep
  24,                                     !- Hour 1
  0,                                      !- Minute 1
  0.05;                                   !- Value Until Time 1

OS:Schedule:Rule,
  {c106d5a0-fec6-4a70-a9ca-da07c0cab6b9}, !- Handle
  0700|2100|StripMall|default|lighting |1/1-12/31|Sat Rule, !- Name
  {1aa2be37-7afd-4e54-ab11-c574f0859812}, !- Schedule Ruleset Name
  0,                                      !- Rule Order
  {e9f35eda-3b31-44fc-9741-173f38af82f1}, !- Day Schedule Name
  ,                                       !- Apply Sunday
  ,                                       !- Apply Monday
  ,                                       !- Apply Tuesday
  ,                                       !- Apply Wednesday
  ,                                       !- Apply Thursday
  ,                                       !- Apply Friday
  Yes,                                    !- Apply Saturday
  ,                                       !- Apply Holiday
  DateRange,                              !- Date Specification Type
  1,                                      !- Start Month
  1,                                      !- Start Day
  12,                                     !- End Month
  31;                                     !- End Day

OS:Schedule:Day,
  {e9f35eda-3b31-44fc-9741-173f38af82f1}, !- Handle
  0700|2100|StripMall|default|lighting |1/1-12/31|Sat, !- Name
  {c3f4d95f-9d02-4d5e-a7e3-593d0a8c439a}, !- Schedule Type Limits Name
  ,                                       !- Interpolate to Timestep
  7,                                      !- Hour 1
  0,                                      !- Minute 1
  0.05,                                   !- Value Until Time 1
  8,                                      !- Hour 2
  0,                                      !- Minute 2
  0.1,                                    !- Value Until Time 2
  9,                                      !- Hour 3
  0,                                      !- Minute 3
  0.3,                                    !- Value Until Time 3
  10,                                     !- Hour 4
  0,                                      !- Minute 4
  0.6,                                    !- Value Until Time 4
  18,                                     !- Hour 5
  0,                                      !- Minute 5
  0.9,                                    !- Value Until Time 5
  19,                                     !- Hour 6
  0,                                      !- Minute 6
  0.5,                                    !- Value Until Time 6
  21,                                     !- Hour 7
  0,                                      !- Minute 7
  0.3,                                    !- Value Until Time 7