
OS:Version,
  {440a6832-200a-414d-b1ae-5dea0aea20a5}, !- Handle
  1.5.5;                                  !- Version Identifier

OS:ClimateZones,
  {135edfab-17e7-40db-a436-27d385a8cd6d}, !- Handle
  ,                                       !- Active Institution
  ,                                       !- Active Year
  ASHRAE,                                 !- Climate Zone Institution Name 1
  ANSI/ASHRAE Standard 169,               !- Climate Zone Document Name 1
  2006,                                   !- Climate Zone Document Year 1
  ,                                       !- Climate Zone Value 1
  CEC,                                    !- Climate Zone Institution Name 2
  California Climate Zone Descriptions,   !- Climate Zone Document Name 2
  1995,                                   !- Climate Zone Document Year 2
  ;                                       !- Climate Zone Value 2

OS:YearDescription,
  {513d8dda-86cb-442a-b01c-1f7f0e0ac70e}; !- Handle

OS:RadianceParameters,
  {270a96f1-3c86-4b75-a667-cdf22790e2c8}, !- Handle
  1,                                      !- Accumulated Rays per Record
  0,                                      !- Direct Threshold
  1,                                      !- Direct Certainty
  1,                                      !- Direct Jitter
  1,                                      !- Direct Pretest
  6,                                      !- Ambient Bounces VMX
  2,                                      !- Ambient Bounces DMX
  4050,                                   !- Ambient Divisions VMX
  512,                                    !- Ambient Divisions DMX
  256,                                    !- Ambient Supersamples
  0.001,                                  !- Limit Weight VMX
  0.001,                                  !- Limit Weight DMX
  500,                                    !- Klems Sampling Density
  146;                                    !- Sky Discretization Resolution

OS:SimulationControl,
  {2c487a4c-bac9-4ac5-b669-1e49d9da7c2b}, !- Handle
  ,                                       !- Do Zone Sizing Calculation
  ,                                       !- Do System Sizing Calculation
  ,                                       !- Do Plant Sizing Calculation
  No,                                     !- Run Simulation for Sizing Periods
  ,                                       !- Run Simulation for Weather File Run Periods
  0.04,                                   !- Loads Convergence Tolerance Value
  ,                                       !- Temperature Convergence Tolerance Value {deltaC}
  ,                                       !- Solar Distribution
  ,                                       !- Maximum Number of Warmup Days
  2;                                      !- Minimum Number of Warmup Days

OS:Sizing:Parameters,
  {dde5af6f-7923-4600-a28a-7556673a0266}, !- Handle
  1.25,                                   !- Heating Sizing Factor
  1.15;                                   !- Cooling Sizing Factor

OS:ProgramControl,
  {05027a99-f2b3-4aeb-afc6-1425fbb4371d}; !- Handle

OS:Timestep,
  {4ebc9f1e-4707-402e-9844-67eb1ffbd522}, !- Handle
  2;                                      !- Number of Timesteps per Hour

OS:OutputControl:ReportingTolerances,
  {65797aa2-06a9-45fe-b69d-bc6e060399d3}; !- Handle

OS:ConvergenceLimits,
  {9fc11aba-8822-4f3d-970c-46391ba4040d}; !- Handle

OS:ShadowCalculation,
  {ca758bea-4416-4626-9bba-3d8795c79bd6}, !- Handle
  7,                                      !- Calculation Frequency
  15000;                                  !- Maximum Figures in Shadow Overlap Calculations

OS:SurfaceConvectionAlgorithm:Inside,
  {aaabfc36-718a-4ab0-b622-f186ebb45230}, !- Handle
  TARP;                                   !- Algorithm

OS:SurfaceConvectionAlgorithm:Outside,
  {9a0a9f6f-4bbd-4b12-a121-9492a1fcd7d6}, !- Handle
  DOE-2;                                  !- Algorithm

OS:HeatBalanceAlgorithm,
  {9d93e563-e1e0-46d7-9e39-d1c8aceb7212}, !- Handle
  ConductionTransferFunction,             !- Algorithm
  200;                                    !- Surface Temperature Upper Limit {F}

OS:ZoneAirHeatBalanceAlgorithm,
  {8520d93e-310f-4696-9bcd-36228bfdd743}, !- Handle
  AnalyticalSolution;                     !- Algorithm

OS:ZoneAirContaminantBalance,
  {eb5fc3ae-fb22-4160-8fcb-3e3b22b000d3}; !- Handle

OS:ZoneCapacitanceMultiplier:ResearchSpecial,
  {4020ce4f-5a7a-4849-8028-8305d7b751b1}, !- Handle
  ,                                       !- Temperature Capacity Multiplier
  ,                                       !- Humidity Capacity Multiplier
  ;                                       !- Carbon Dioxide Capacity Multiplier

OS:RunPeriod,
  {28df894d-6af9-4fb8-8f56-df1753344aa3}, !- Handle
  Run Period 1,                           !- Name
  1,                                      !- Begin Month
  1,                                      !- Begin Day of Month
  12,                                     !- End Month
  31,                                     !- End Day of Month
  ,                                       !- Use Weather File Holidays and Special Days
  ,                                       !- Use Weather File Daylight Saving Period
  ,                                       !- Apply Weekend Holiday Rule
  ,                                       !- Use Weather File Rain Indicators
  ,                                       !- Use Weather File Snow Indicators
  ;                                       !- Number of Times Runperiod to be Repeated

OS:Building,
  {bf305633-c5a1-4881-9edf-ca5e1a8e1274}, !- Handle
  Building 1,                             !- Name
  ,                                       !- Building Sector Type
  ,                                       !- North Axis {deg}
  ,                                       !- Nominal Floor to Floor Height {m}
  ,                                       !- Space Type Name
  ,                                       !- Default Construction Set Name
  {9ea552d2-486b-4f6a-ad41-ff713a35e4d9}, !- Default Schedule Set Name
  ,                                       !- Standards Number of Stories
  ,                                       !- Standards Number of Above Ground Stories
  SuperMarket;                            !- Standards Building Type

OS:LifeCycleCost:Parameters,
  {231cf8a0-f0e7-4251-a99f-11f0d464e661}, !- Handle
  FEMP,                                   !- Analysis Type
  ,                                       !- Discounting Convention
  ,                                       !- Inflation Approach
  ,                                       !- Real Discount Rate
  ,                                       !- Nominal Discount Rate
  ,                                       !- Inflation
  ,                                       !- Base Date Month
  ,                                       !- Base Date Year
  ,                                       !- Service Date Month
  ,                                       !- Service Date Year
  ,                                       !- Length of Study Period in Years
  ,                                       !- Tax Rate
  ,                                       !- Depreciation Method
  Yes;                                    !- Use NIST Fuel Escalation Rates

OS:Facility,
  {3ba8e45b-b833-44eb-a723-ea6c3946dc96}; !- Handle

OS:SpaceType,
  {b07b5b92-e6ed-4dcb-b97f-de6cde3d0d07}, !- Handle
  SuperMarket|Sales/Produce|DOE Ref Pre-1980|ASHRAE 169-2006-5A, !- Name
  {f425cfbc-e01a-4b3f-ad94-7cb4c3e74be6}, !- Default Construction Set Name
  {10962f9c-6f04-4897-8582-8b640f407443}, !- Default Schedule Set Name
  {58122dd1-f06e-4139-990c-9dca837f9956}, !- Group Rendering Name
  {1a6d91a0-6ff9-4c7c-b40c-3f2b618cf37f}, !- Design Specification Outdoor Air Object Name
  SuperMarket,                            !- Standards Building Type
  Sales/Produce;                          !- Standards Space Type

OS:Rendering:Color,
  {58122dd1-f06e-4139-990c-9dca837f9956}, !- Handle
  Rendering Color 1,                      !- Name
  230,                                    !- Rendering Red Value
  196,                                    !- Rendering Green Value
  120;                                    !- Rendering Blue Value

OS:SpaceType,
  {a379a01d-de33-43ce-b2a0-3784a0281a01}, !- Handle
  SuperMarket|DryStorage|DOE Ref Pre-1980|ASHRAE 169-2006-5A, !- Name
  {f425cfbc-e01a-4b3f-ad94-7cb4c3e74be6}, !- Default Construction Set Name
  {a8647c73-419b-4cf6-a385-eb1e1c5b65a7}, !- Default Schedule Set Name
  {fba77f65-61bd-440e-9eeb-07971ad83a71}, !- Group Rendering Name
  {a40e6b36-b2ff-44e5-96d5-402eacc16981}, !- Design Specification Outdoor Air Object Name
  SuperMarket,                            !- Standards Building Type
  DryStorage;                             !- Standards Space Type

OS:Rendering:Color,
  {fba77f65-61bd-440e-9eeb-07971ad83a71}, !- Handle
  Rendering Color 2,                      !- Name
  120,                                    !- Rendering Red Value
  149,                                    !- Rendering Green Value
  230;                                    !- Rendering Blue Value

OS:SpaceType,
  {84325f1a-b2c0-4397-aef6-a962eb1b8095}, !- Handle
  SuperMarket|Deli/Bakery|DOE Ref Pre-1980|ASHRAE 169-2006-5A, !- Name
  {f425cfbc-e01a-4b3f-ad94-7cb4c3e74be6}, !- Default Construction Set Name
  {3cada0c0-66cd-4e26-955f-a77071d5eebf}, !- Default Schedule Set Name
  {de3d5808-04e5-4376-ba39-1e294aeafa61}, !- Group Rendering Name
  {480a0b8f-8f78-4dcd-81b1-781ff41f689a}, !- Design Specification Outdoor Air Object Name
  SuperMarket,                            !- Standards Building Type
  Deli/Bakery;                            !- Standards Space Type

OS:Rendering:Color,
  {de3d5808-04e5-4376-ba39-1e294aeafa61}, !- Handle
  Rendering Color 3,                      !- Name
  31,                                     !- Rendering Red Value
  169,                                    !- Rendering Green Value
  34;                                     !- Rendering Blue Value

OS:SpaceType,
  {5c18ec92-d40c-4d19-bd0f-d5d6c0ca48d8}, !- Handle
  SuperMarket|Office|DOE Ref Pre-1980|ASHRAE 169-2006-5A, !- Name
  {f425cfbc-e01a-4b3f-ad94-7cb4c3e74be6}, !- Default Construction Set Name
  {e12b1582-8ed7-46c8-8ced-4c1ddab38ce3}, !- Default Schedule Set Name
  {1fd7d235-33dd-40ea-befa-5dddea0ac9bb}, !- Group Rendering Name
  {98de6568-d420-4505-b562-8a3cc1cf70a5}, !- Design Specification Outdoor Air Object Name
  SuperMarket,                            !- Standards Building Type
  Office;                                 !- Standards Space Type

OS:Rendering:Color,
  {1fd7d235-33dd-40ea-befa-5dddea0ac9bb}, !- Handle
  Rendering Color 4,                      !- Name
  120,                                    !- Rendering Red Value
  230,                                    !- Rendering Green Value
  199;                                    !- Rendering Blue Value

OS:Schedule:Ruleset,
  {91fb9363-17cc-4754-a55f-251ee1ecebf7}, !- Handle
  0600|2200|SuperMarket|default|hoo,      !- Name
  {71e610fa-6fb1-4c31-97b1-81f856decce9}, !- Schedule Type Limits Name
  {fb4f500b-920b-41e9-b10c-d17116b09755}, !- Default Day Schedule Name
  {28c220fe-f41f-45de-b3ac-69897cf107c7}, !- Summer Design Day Schedule Name
  {0683fb63-b166-4d03-b9af-d32f0636a9f1}; !- Winter Design Day Schedule Name

OS:Schedule:Day,
  {fb4f500b-920b-41e9-b10c-d17116b09755}, !- Handle
  0600|2200|SuperMarket|default|hoo Schedule Week Day, !- Name
  {71e610fa-6fb1-4c31-97b1-81f856decce9}, !- Schedule Type Limits Name
  ,                                       !- Interpolate to Timestep
  6,                                      !- Hour 1
  0,                                      !- Minute 1
  0,                                      !- Value Until Time 1
  22,                                     !- Hour 2
  0,                                      !- Minute 2
  1,                                      !- Value Until Time 2
  24,                                     !- Hour 3
  0,                                      !- Minute 3
  0;                                      !- Value Until Time 3

OS:Schedule:Day,
  {641b11cc-fba2-4957-8257-547ff43299a0}, !- Handle
  Schedule Day 2,                         !- Name
  ,                                       !- Schedule Type Limits Name
  ,                                       !- Interpolate to Timestep
  24,                                     !- Hour 1
  0,                                      !- Minute 1
  0;                                      !- Value Until Time 1

OS:Schedule:Day,
  {0683fb63-b166-4d03-b9af-d32f0636a9f1}, !- Handle
  0600|2200|SuperMarket|default|hoo Winter Design Day, !- Name
  {71e610fa-6fb1-4c31-97b1-81f856decce9}, !- Schedule Type Limits Name
  ,                                       !- Interpolate to Timestep
  24,                                     !- Hour 1
  0,                                      !- Minute 1
  0;                                      !- Value Until Time 1

OS:Schedule:Day,
  {a1e7b387-12a0-4c6a-8c81-17ae0232bd13}, !- Handle
  Schedule Day 3,                         !- Name
  ,                                       !- Schedule Type Limits Name
  ,                                       !- Interpolate to Timestep
  24,                                     !- Hour 1
  0,                                      !- Minute 1
  0;                                      !- Value Until Time 1

OS:Schedule:Day,
  {28c220fe-f41f-45de-b3ac-69897cf107c7}, !- Handle
  0600|2200|SuperMarket|default|hoo Summer Design Day, !- Name
  {71e610fa-6fb1-4c31-97b1-81f856decce9}, !- Schedule Type Limits Name
  ,                                       !- Interpolate to Timestep
  24,                                     !- Hour 1
  0,                                      !- Minute 1
  1;                                      !- Value Until Time 1

OS:DefaultScheduleSet,
  {9ea552d2-486b-4f6a-ad41-ff713a35e4d9}, !- Handle
  Building Hours of Operation,            !- Name
  {91fb9363-17cc-4754-a55f-251ee1ecebf7}, !- Hours of Operation Schedule Name
  ,                                       !- Number of People Schedule Name
  ,                                       !- People Activity Level Schedule Name
  ,                                       !- Lighting Schedule Name
  ,                                       !- Electric Equipment Schedule Name
  ,                                       !- Gas Equipment Schedule Name
  ,                                       !- Hot Water Equipment Schedule Name
  ,                                       !- Infiltration Schedule Name
  ,                                       !- Steam Equipment Schedule Name
  ;                                       !- Other Equipment Schedule Name

OS:ScheduleTypeLimits,
  {71e610fa-6fb1-4c31-97b1-81f856decce9}, !- Handle
  OnOff,                                  !- Name
  0,                                      !- Lower Limit Value {BasedOnField A4}
  1,                                      !- Upper Limit Value {BasedOnField A4}
  Discrete,                               !- Numeric Type
  Availability;                           !- Unit Type

OS:Schedule:Ruleset,
  {815dd9df-6357-43eb-b53a-1dbb159987bf}, !- Handle
  0600|2200|SuperMarket|default|ext_lighting, !- Name
  {a3c831a3-48d5-44c2-b4fb-530b67bdc495}, !- Schedule Type Limits Name
  {ff954113-a027-46c4-a530-0c7adb93e967}, !- Default Day Schedule Name
  {77d93182-b89a-434d-8f06-538cd3a0fc5a}, !- Summer Design Day Schedule Name
  {a3f92a33-f348-4995-b896-76eb75d094dd}; !- Winter Design Day Schedule Name

OS:ScheduleTypeLimits,
  {a3c831a3-48d5-44c2-b4fb-530b67bdc495}, !- Handle
  Lights Schedule Type Limits,            !- Name
  0,                                      !- Lower Limit Value {BasedOnField A4}
  1,                                      !- Upper Limit Value {BasedOnField A4}
  Continuous,                             !- Numeric Type
  Dimensionless;                          !- Unit Type

OS:Schedule:Day,
  {ff954113-a027-46c4-a530-0c7adb93e967}, !- Handle
  0600|2200|SuperMarket|default|ext_lighting |default, !- Name
  {a3c831a3-48d5-44c2-b4fb-530b67bdc495}, !- Schedule Type Limits Name
  ,                                       !- Interpolate to Timestep
  24,                                     !- Hour 1
  0,                                      !- Minute 1
  1;                                      !- Value Until Time 1

OS:Schedule:Day,
  {77d93182-b89a-434d-8f06-538cd3a0fc5a}, !- Handle
  0600|2200|SuperMarket|default|ext_lighting Summer Design Day, !- Name
  {a3c831a3-48d5-44c2-b4fb-530b67bdc495}, !- Schedule Type Limits Name
  ,                                       !- Interpolate to Timestep
  24,                                     !- Hour 1
  0,                                      !- Minute 1
  1;                                      !- Value Until Time 1

OS:Schedule:Day,
  {a3f92a33-f348-4995-b896-76eb75d094dd}, !- Handle
  0600|2200|SuperMarket|default|ext_lighting Winter Design Day, !- Name
  {a3c831a3-48d5-44c2-b4fb-530b67bdc495}, !- Schedule Type Limits Name
  ,                                       !- Interpolate to Timestep
  24,                                     !- Hour 1
  0,                                      !- Minute 1
  1;                                      !- Value Until Time 1

OS:Schedule:Ruleset,
  {f4bea71f-0a2c-4f10-a7a2-73a865a258f2}, !- Handle
  0600|2200|SuperMarket|default|air_velocity, !- Name
  {db2d06b5-6e77-4ed3-b72a-5c28ff824530}, !- Schedule Type Limits Name
  {a2982843-edbc-460c-8a39-1f5a7670af08}, !- Default Day Schedule Name
  {84377e20-942d-4987-b07e-516ee315fb33}, !- Summer Design Day Schedule Name
  {a464c43f-405d-49d1-afca-d37e6f481bcb}; !- Winter Design Day Schedule Name

OS:ScheduleTypeLimits,
  {db2d06b5-6e77-4ed3-b72a-5c28ff824530}, !- Handle
  Dimensionless Schedule Type Limits,     !- Name
  ,                                       !- Lower Limit Value {BasedOnField A4}
  ,                                       !- Upper Limit Value {BasedOnField A4}
  Continuous,                             !- Numeric Type
  Dimensionless;                          !- Unit Type

OS:Schedule:Day,
  {a2982843-edbc-460c-8a39-1f5a7670af08}, !- Handle
  0600|2200|SuperMarket|default|air_velocity |default, !- Name
  {db2d06b5-6e77-4ed3-b72a-5c28ff824530}, !- Schedule Type Limits Name
  ,                                       !- Interpolate to Timestep
  24,                                     !- Hour 1
  0,                                      !- Minute 1
  0.200152;                               !- Value Until Time 1

OS:Schedule:Day,
  {84377e20-942d-4987-b07e-516ee315fb33}, !- Handle
  0600|2200|SuperMarket|default|air_velocity Summer Design Day, !- Name
  {db2d06b5-6e77-4ed3-b72a-5c28ff824530}, !- Schedule Type Limits Name
  ,                                       !- Interpolate to Timestep
  24,                                     !- Hour 1
  0,                                      !- Minute 1
  0.200152;                               !- Value Until Time 1

OS:Schedule:Day,
  {a464c43f-405d-49d1-afca-d37e6f481bcb}, !- Handle
  0600|2200|SuperMarket|default|air_velocity Winter Design Day, !- Name
  {db2d06b5-6e77-4ed3-b72a-5c28ff824530}, !- Schedule Type Limits Name
  ,                                       !- Interpolate to Timestep
  24,                                     !- Hour 1
  0,                                      !- Minute 1
  0.200152;                               !- Value Until Time 1

OS:Schedule:Ruleset,
  {97a2560d-92ad-44b7-9248-209c020fa01d}, !- Handle
  0600|2200|SuperMarket|default|elevator, !- Name
  {886968d1-f7f2-4788-877c-67ef97a8f030}, !- Schedule Type Limits Name
  {4c5ccad4-4e42-43da-8191-6823e99da1e9}, !- Default Day Schedule Name
  {4221f5a2-c2a8-4112-9a8f-f222973c784c}, !- Summer Design Day Schedule Name
  {3d9e4a81-cfe9-47e4-8e91-39c40e4c5946}; !- Winter Design Day Schedule Name

OS:ScheduleTypeLimits,
  {886968d1-f7f2-4788-877c-67ef97a8f030}, !- Handle
  Elevators Schedule Type Limits,         !- Name
  0,                                      !- Lower Limit Value {BasedOnField A4}
  1,                                      !- Upper Limit Value {BasedOnField A4}
  Continuous,                             !- Numeric Type
  Dimensionless;                          !- Unit Type

OS:Schedule:Day,
  {4c5ccad4-4e42-43da-8191-6823e99da1e9}, !- Handle
  0600|2200|SuperMarket|default|elevator |default, !- Name
  {886968d1-f7f2-4788-877c-67ef97a8f030}, !- Schedule Type Limits Name
  ,                                       !- Interpolate to Timestep
  5,                                      !- Hour 1
  0,                                      !- Minute 1
  0,                                      !- Value Until Time 1
  5,                                      !- Hour 2
  30,                                     !- Minute 2
  0.17,                                   !- Value Until Time 2
  6,                                      !- Hour 3
  0,                                      !- Minute 3
  0.35,                                   !- Value Until Time 3
  6,                                      !- Hour 4
  30,                                     !- Minute 4
  0.52,                                   !- Value Until Time 4
  7,                                      !- Hour 5
  0,                                      !- Minute 5
  0.69,                                   !- Value Until Time 5
  7,                                      !- Hour 6
  30,                                     !- Minute 6
  0.54,                                   !- Value Until Time 6
  8,                                      !- Hour 7
  0,                                      !- Minute 7
  0.4,                                    !- Value Until Time 7
  8,                                      !- Hour 8
  30,                                     !- Minute 8
  0.41,                                   !- Value Until Time 8
  9,                                      !- Hour 9
  0,                                      !- Minute 9
  0.43,                                   !- Value Until Time 9
  9,                                      !- Hour 10
  30,                                     !- Minute 10
  0.44,                                   !- Value Until Time 10
  10,                                     !- Hour 11
  0,                                      !- Minute 11
  0.45,                                   !- Value Until Time 11
  10,                                     !- Hour 12
  30,                                     !- Minute 12
  0.46,                                   !- Value Until Time 12
  11,                                     !- Hour 13
  0,                                      !- Minute 13
  0.48,                                   !- Value Until Time 13
  11,                                     !- Hour 14
  30,                                     !- Minute 14
  0.49,                                   !- Value Until Time 14
  12,                                     !- Hour 15
  0,                                      !- Minute 15
  0.5,                                    !- Value Until Time 15
  12,                                     !- Hour 16
  30,                                     !- Minute 16
  0.51,                                   !- Value Until Time 16
  13,                                     !- Hour 17
  0,                                      !- Minute 17
  0.53,                                   !- Value Until Time 17
  13,                                     !- Hour 18
  30,                                     !- Minute 18
  0.54,                                   !- Value Until Time 18
  14,                                     !- Hour 19
  0,                                      !- Minute 19
  0.55,                                   !- Value Until Time 19
  14,                                     !- Hour 20
  30,                                     !- Minute 20
  0.54,                                   !- Value Until Time 20
  15,                                     !- Hour 21
  0,                                      !- Minute 21
  0.53,                                   !- Value Until Time 21
  15,                                     !- Hour 22
  30,                                     !- Minute 22
  0.52,                                   !- Value Until Time 22
  16,                                     !- Hour 23
  0,                                      !- Minute 23
  0.51,                                   !- Value Until Time 23
  16,                                     !- Hour 24
  30,                                     !- Minute 24
  0.5,                                    !- Value Until Time 24
  17,                                     !- Hour 25
  0,                                      !- Minute 25
  0.49,                                   !- Value Until Time 25
  17,                                     !- Hour 26
  30,                                     !- Minute 26
  0.48,                                   !- Value Until Time 26
  18,                                     !- Hour 27
  0,                                      !- Minute 27
  0.46,                                   !- Value Until Time 27
  18,                                     !- Hour 28
  30,                                     !- Minute 28
  0.45,                                   !- Value Until Time 28
  19,                                     !- Hour 29
  0,                                      !- Minute 29
  0.44,                                   !- Value Until Time 29
  19,                                     !- Hour 30
  30,                                     !- Minute 30
  0.43,                                   !- Value Until Time 30
  20,                                     !- Hour 31
  0,                                      !- Minute 31
  0.42,                                   !- Value Until Time 31
  20,                                     !- Hour 32
  30,                                     !- Minute 32
  0.41,                                   !- Value Until Time 32
  21,                                     !- Hour 33
  0,                                      !- Minute 33
  0.4,                                    !- Value Until Time 33
  21,                                     !- Hour 34
  30,                                     !- Minute 34
  0.5,                                    !- Value Until Time 34
  22,                                     !- Hour 35
  0,                                      !- Minute 35
  0.6,                                    !- Value Until Time 35
  22,                                     !- Hour 36
  30,                                     !- Minute 36
  0.46,                                   !- Value Until Time 36
  23,                                     !- Hour 37
  0,                                      !- Minute 37
  0.32,                                   !- Value Until Time 37
  23,                                     !- Hour 38
  30,                                     !- Minute 38
  0.18,                                   !- Value Until Time 38
  24,                                     !- Hour 39
  0,                                      !- Minute 39
  0.04;                                   !- Value Until Time 39

OS:Schedule:Day,
  {4221f5a2-c2a8-4112-9a8f-f222973c784c}, !- Handle
  0600|2200|SuperMarket|default|elevator Summer Design Day, !- Name
  {886968d1-f7f2-4788-877c-67ef97a8f030}, !- Schedule Type Limits Name
  ,                                       !- Interpolate to Timestep
  5,                                      !- Hour 1
  0,                                      !- Minute 1
  0,                                      !- Value Until Time 1
  5,                                      !- Hour 2
  30,                                     !- Minute 2
  0.17,                                   !- Value Until Time 2
  6,                                      !- Hour 3
  0,                                      !- Minute 3
  0.35,                                   !- Value Until Time 3
  6,                                      !- Hour 4
  30,                                     !- Minute 4
  0.52,                                   !- Value Until Time 4
  7,                                      !- Hour 5
  0,                                      !- Minute 5
  0.69,                                   !- Value Until Time 5
  7,                                      !- Hour 6
  30,                                     !- Minute 6
  0.54,                                   !- Value Until Time 6
  8,                                      !- Hour 7
  0,                                      !- Minute 7
  0.4,                                    !- Value Until Time 7
  8,                                      !- Hour 8
  30,                                     !- Minute 8
  0.41,                                   !- Value Until Time 8
  9,                                      !- Hour 9
  0,                                      !- Minute 9
  0.43,                                   !- Value Until Time 9
  9,                                      !- Hour 10
  30,                                     !- Minute 10
  0.44,                                   !- Value Until Time 10
  10,                                     !- Hour 11
  0,                                      !- Minute 11
  0.45,                                   !- Value Until Time 11
  10,                                     !- Hour 12
  30,                                     !- Minute 12
  0.46,                                   !- Value Until Time 12
  11,                                     !- Hour 13
  0,                                      !- Minute 13
  0.48,                                   !- Value Until Time 13
  11,                                     !- Hour 14
  30,                                     !- Minute 14
  0.49,                                   !- Value Until Time 14