
OS:Version,
  {43100642-d6bb-4b73-9431-ec433f438710}, !- Handle
  1.5.5;                                  !- Version Identifier

OS:ClimateZones,
  {135edfab-17e7-40db-a436-27d385a8cd6d}, !- Handle
  ,                                       !- Active Institution
  ,                                       !- Active Year
  ASHRAE,                                 !- Climate Zone Institution Name 1
  ANSI/ASHRAE Standard 169,               !- Climate Zone Document Name 1
  2006,                                   !- Climate Zone Document Year 1
  ,                                       !- Climate Zone Value 1
  CEC,                                    !- Climate Zone Institution Name 2
  California Climate Zone Descriptions,   !- Climate Zone Document Name 2
  1995,                                   !- Climate Zone Document Year 2
  ;                                       !- Climate Zone Value 2

OS:YearDescription,
  {513d8dda-86cb-442a-b01c-1f7f0e0ac70e}; !- Handle

OS:RadianceParameters,
  {270a96f1-3c86-4b75-a667-cdf22790e2c8}, !- Handle
  1,                                      !- Accumulated Rays per Record
  0,                                      !- Direct Threshold
  1,                                      !- Direct Certainty
  1,                                      !- Direct Jitter
  1,                                      !- Direct Pretest
  6,                                      !- Ambient Bounces VMX
  2,                                      !- Ambient Bounces DMX
  4050,                                   !- Ambient Divisions VMX
  512,                                    !- Ambient Divisions DMX
  256,                                    !- Ambient Supersamples
  0.001,                                  !- Limit Weight VMX
  0.001,                                  !- Limit Weight DMX
  500,                                    !- Klems Sampling Density
  146;                                    !- Sky Discretization Resolution

OS:SimulationControl,
  {2c487a4c-bac9-4ac5-b669-1e49d9da7c2b}, !- Handle
  ,                                       !- Do Zone Sizing Calculation
  ,                                       !- Do System Sizing Calculation
  ,                                       !- Do Plant Sizing Calculation
  No,                                     !- Run Simulation for Sizing Periods
  ,                                       !- Run Simulation for Weather File Run Periods
  0.04,                                   !- Loads Convergence Tolerance Value
  ,                                       !- Temperature Convergence Tolerance Value {deltaC}
  ,                                       !- Solar Distribution
  ,                                       !- Maximum Number of Warmup Days
  2;                                      !- Minimum Number of Warmup Days

OS:Sizing:Parameters,
  {dde5af6f-7923-4600-a28a-7556673a0266}, !- Handle
  1.25,                                   !- Heating Sizing Factor
  1.15;                                   !- Cooling Sizing Factor

OS:ProgramControl,
  {05027a99-f2b3-4aeb-afc6-1425fbb4371d}; !- Handle

OS:Timestep,
  {4ebc9f1e-4707-402e-9844-67eb1ffbd522}, !- Handle
  2;                                      !- Number of Timesteps per Hour

OS:OutputControl:ReportingTolerances,
  {65797aa2-06a9-45fe-b69d-bc6e060399d3}; !- Handle

OS:ConvergenceLimits,
  {9fc11aba-8822-4f3d-970c-46391ba4040d}; !- Handle

OS:ShadowCalculation,
  {ca758bea-4416-4626-9bba-3d8795c79bd6}, !- Handle
  7,                                      !- Calculation Frequency
  15000;                                  !- Maximum Figures in Shadow Overlap Calculations

OS:SurfaceConvectionAlgorithm:Inside,
  {aaabfc36-718a-4ab0-b622-f186ebb45230}, !- Handle
  TARP;                                   !- Algorithm

OS:SurfaceConvectionAlgorithm:Outside,
  {9a0a9f6f-4bbd-4b12-a121-9492a1fcd7d6}, !- Handle
  DOE-2;                                  !- Algorithm

OS:HeatBalanceAlgorithm,
  {9d93e563-e1e0-46d7-9e39-d1c8aceb7212}, !- Handle
  ConductionTransferFunction,             !- Algorithm
  200;                                    !- Surface Temperature Upper Limit {F}

OS:ZoneAirHeatBalanceAlgorithm,
  {8520d93e-310f-4696-9bcd-36228bfdd743}, !- Handle
  AnalyticalSolution;                     !- Algorithm

OS:ZoneAirContaminantBalance,
  {eb5fc3ae-fb22-4160-8fcb-3e3b22b000d3}; !- Handle

OS:ZoneCapacitanceMultiplier:ResearchSpecial,
  {4020ce4f-5a7a-4849-8028-8305d7b751b1}, !- Handle
  ,                                       !- Temperature Capacity Multiplier
  ,                                       !- Humidity Capacity Multiplier
  ;                                       !- Carbon Dioxide Capacity Multiplier

OS:RunPeriod,
  {28df894d-6af9-4fb8-8f56-df1753344aa3}, !- Handle
  Run Period 1,                           !- Name
  1,                                      !- Begin Month
  1,                                      !- Begin Day of Month
  12,                                     !- End Month
  31,                                     !- End Day of Month
  ,                                       !- Use Weather File Holidays and Special Days
  ,                                       !- Use Weather File Daylight Saving Period
  ,                                       !- Apply Weekend Holiday Rule
  ,                                       !- Use Weather File Rain Indicators
  ,                                       !- Use Weather File Snow Indicators
  ;                                       !- Number of Times Runperiod to be Repeated

OS:Building,
  {bf305633-c5a1-4881-9edf-ca5e1a8e1274}, !- Handle
  Building 1,                             !- Name
  ,                                       !- Building Sector Type
  ,                                       !- North Axis {deg}
  ,                                       !- Nominal Floor to Floor Height {m}
  ,                                       !- Space Type Name
  ,                                       !- Default Construction Set Name
  {bfb03da8-6baa-4cd2-9487-c46545ef2860}, !- Default Schedule Set Name
  ,                                       !- Standards Number of Stories
  ,                                       !- Standards Number of Above Ground Stories
  SuperMarket;                            !- Standards Building Type

OS:LifeCycleCost:Parameters,
  {231cf8a0-f0e7-4251-a99f-11f0d464e661}, !- Handle
  FEMP,                                   !- Analysis Type
  ,                                       !- Discounting Convention
  ,                                       !- Inflation Approach
  ,                                       !- Real Discount Rate
  ,                                       !- Nominal Discount Rate
  ,                                       !- Inflation
  ,                                       !- Base Date Month
  ,                                       !- Base Date Year
  ,                                       !- Service Date Month
  ,                                       !- Service Date Year
  ,                                       !- Length of Study Period in Years
  ,                                       !- Tax Rate
  ,                                       !- Depreciation Method
  Yes;                                    !- Use NIST Fuel Escalation Rates

OS:Facility,
  {3ba8e45b-b833-44eb-a723-ea6c3946dc96}; !- Handle

OS:SpaceType,
  {362cb52f-6ad1-4caa-bfbf-ab8db01e5d12}, !- Handle
  SuperMarket|Sales/Produce|DOE Ref 2004|ASHRAE 169-2006-5A, !- Name
  {6cb4dc0c-f28b-4f53-84bf-c711885f511f}, !- Default Construction Set Name
  {441f37bd-5d49-490e-98e5-2b15d5b9f733}, !- Default Schedule Set Name
  {adece449-1927-4230-ada9-d55ba82bc78c}, !- Group Rendering Name
  {7af0fb0c-79a9-4dc2-a398-434b2bcbdbab}, !- Design Specification Outdoor Air Object Name
  SuperMarket,                            !- Standards Building Type
  Sales/Produce;                          !- Standards Space Type

OS:Rendering:Color,
  {adece449-1927-4230-ada9-d55ba82bc78c}, !- Handle
  Rendering Color 1,                      !- Name
  230,                                    !- Rendering Red Value
  196,                                    !- Rendering Green Value
  120;                                    !- Rendering Blue Value

OS:SpaceType,
  {2e9ff98f-f0d5-4200-acef-4f6ad44993a2}, !- Handle
  SuperMarket|DryStorage|DOE Ref 2004|ASHRAE 169-2006-5A, !- Name
  {6cb4dc0c-f28b-4f53-84bf-c711885f511f}, !- Default Construction Set Name
  {35b51cab-435c-4cb9-aade-906bcfc77f62}, !- Default Schedule Set Name
  {105edfa6-16fb-42dd-8a77-498e4c181a7f}, !- Group Rendering Name
  {471bcfc2-8487-4f10-b2d5-5056c229849f}, !- Design Specification Outdoor Air Object Name
  SuperMarket,                            !- Standards Building Type
  DryStorage;                             !- Standards Space Type

OS:Rendering:Color,
  {105edfa6-16fb-42dd-8a77-498e4c181a7f}, !- Handle
  Rendering Color 2,                      !- Name
  120,                                    !- Rendering Red Value
  149,                                    !- Rendering Green Value
  230;                                    !- Rendering Blue Value

OS:SpaceType,
  {214d2475-a547-4278-9dc0-19403da6df68}, !- Handle
  SuperMarket|Deli/Bakery|DOE Ref 2004|ASHRAE 169-2006-5A, !- Name
  {6cb4dc0c-f28b-4f53-84bf-c711885f511f}, !- Default Construction Set Name
  {2c774739-0999-4aa7-860a-80eadd7d07e9}, !- Default Schedule Set Name
  {3180c4d5-dc2f-4625-8389-414ebc63c740}, !- Group Rendering Name
  {cab83dd6-4bea-4322-961a-95ac117cb236}, !- Design Specification Outdoor Air Object Name
  SuperMarket,                            !- Standards Building Type
  Deli/Bakery;                            !- Standards Space Type

OS:Rendering:Color,
  {3180c4d5-dc2f-4625-8389-414ebc63c740}, !- Handle
  Rendering Color 3,                      !- Name
  31,                                     !- Rendering Red Value
  169,                                    !- Rendering Green Value
  34;                                     !- Rendering Blue Value

OS:SpaceType,
  {d2649d55-5ac5-4640-a77f-d2647b19be17}, !- Handle
  SuperMarket|Office|DOE Ref 2004|ASHRAE 169-2006-5A, !- Name
  {6cb4dc0c-f28b-4f53-84bf-c711885f511f}, !- Default Construction Set Name
  {944bee9a-f8a8-403a-8bf8-7beef9e258e1}, !- Default Schedule Set Name
  {c75db7ad-8d22-4c4d-beca-ddf622b6fe9d}, !- Group Rendering Name
  {6e4548e9-a02e-4268-9824-077aa41f120c}, !- Design Specification Outdoor Air Object Name
  SuperMarket,                            !- Standards Building Type
  Office;                                 !- Standards Space Type

OS:Rendering:Color,
  {c75db7ad-8d22-4c4d-beca-ddf622b6fe9d}, !- Handle
  Rendering Color 4,                      !- Name
  120,                                    !- Rendering Red Value
  230,                                    !- Rendering Green Value
  199;                                    !- Rendering Blue Value

OS:Schedule:Ruleset,
  {32153464-2b63-4673-9b86-34a840b1a744}, !- Handle
  0600|2200|SuperMarket|default|hoo,      !- Name
  {27c10385-2a07-4470-a7a1-08b17aa6f320}, !- Schedule Type Limits Name
  {2aa73d4b-58a8-4f31-bd48-96ead90fcf68}, !- Default Day Schedule Name
  {970f22ab-9fab-4db0-8e1f-9ee51b6c550d}, !- Summer Design Day Schedule Name
  {cd0f9fa4-59cd-4b01-92fa-0860bbfacd78}; !- Winter Design Day Schedule Name

OS:Schedule:Day,
  {2aa73d4b-58a8-4f31-bd48-96ead90fcf68}, !- Handle
  0600|2200|SuperMarket|default|hoo Schedule Week Day, !- Name
  {27c10385-2a07-4470-a7a1-08b17aa6f320}, !- Schedule Type Limits Name
  ,                                       !- Interpolate to Timestep
  6,                                      !- Hour 1
  0,                                      !- Minute 1
  0,                                      !- Value Until Time 1
  22,                                     !- Hour 2
  0,                                      !- Minute 2
  1,                                      !- Value Until Time 2
  24,                                     !- Hour 3
  0,                                      !- Minute 3
  0;                                      !- Value Until Time 3

OS:Schedule:Day,
  {6c0c6c6a-c964-4ec9-a030-3e4b210614b1}, !- Handle
  Schedule Day 2,                         !- Name
  ,                                       !- Schedule Type Limits Name
  ,                                       !- Interpolate to Timestep
  24,                                     !- Hour 1
  0,                                      !- Minute 1
  0;                                      !- Value Until Time 1

OS:Schedule:Day,
  {cd0f9fa4-59cd-4b01-92fa-0860bbfacd78}, !- Handle
  0600|2200|SuperMarket|default|hoo Winter Design Day, !- Name
  {27c10385-2a07-4470-a7a1-08b17aa6f320}, !- Schedule Type Limits Name
  ,                                       !- Interpolate to Timestep
  24,                                     !- Hour 1
  0,                                      !- Minute 1
  0;                                      !- Value Until Time 1

OS:Schedule:Day,
  {a003c748-fb59-4f99-8532-08db14b9c6e0}, !- Handle
  Schedule Day 3,                         !- Name
  ,                                       !- Schedule Type Limits Name
  ,                                       !- Interpolate to Timestep
  24,                                     !- Hour 1
  0,                                      !- Minute 1
  0;                                      !- Value Until Time 1

OS:Schedule:Day,
  {970f22ab-9fab-4db0-8e1f-9ee51b6c550d}, !- Handle
  0600|2200|SuperMarket|default|hoo Summer Design Day, !- Name
  {27c10385-2a07-4470-a7a1-08b17aa6f320}, !- Schedule Type Limits Name
  ,                                       !- Interpolate to Timestep
  24,                                     !- Hour 1
  0,                                      !- Minute 1
  1;                                      !- Value Until Time 1

OS:DefaultScheduleSet,
  {bfb03da8-6baa-4cd2-9487-c46545ef2860}, !- Handle
  Building Hours of Operation,            !- Name
  {32153464-2b63-4673-9b86-34a840b1a744}, !- Hours of Operation Schedule Name
  ,                                       !- Number of People Schedule Name
  ,                                       !- People Activity Level Schedule Name
  ,                                       !- Lighting Schedule Name
  ,                                       !- Electric Equipment Schedule Name
  ,                                       !- Gas Equipment Schedule Name
  ,                                       !- Hot Water Equipment Schedule Name
  ,                                       !- Infiltration Schedule Name
  ,                                       !- Steam Equipment Schedule Name
  ;                                       !- Other Equipment Schedule Name

OS:ScheduleTypeLimits,
  {27c10385-2a07-4470-a7a1-08b17aa6f320}, !- Handle
  OnOff,                                  !- Name
  0,                                      !- Lower Limit Value {BasedOnField A4}
  1,                                      !- Upper Limit Value {BasedOnField A4}
  Discrete,                               !- Numeric Type
  Availability;                           !- Unit Type

OS:Schedule:Ruleset,
  {cdf8f63a-90fd-47e0-93cb-2048328b7c0f}, !- Handle
  0600|2200|SuperMarket|default|ext_lighting, !- Name
  {debbdbf4-204c-4739-aaea-7185da2f5aba}, !- Schedule Type Limits Name
  {96cfc3c6-a127-4eaa-bd4c-96d1f16d861d}, !- Default Day Schedule Name
  {e4f82c43-69b1-4ea7-a763-9e790f531c5e}, !- Summer Design Day Schedule Name
  {b8e14c7e-7e05-4022-9c45-05d637637c61}; !- Winter Design Day Schedule Name

OS:ScheduleTypeLimits,
  {debbdbf4-204c-4739-aaea-7185da2f5aba}, !- Handle
  Lights Schedule Type Limits,            !- Name
  0,                                      !- Lower Limit Value {BasedOnField A4}
  1,                                      !- Upper Limit Value {BasedOnField A4}
  Continuous,                             !- Numeric Type
  Dimensionless;                          !- Unit Type

OS:Schedule:Day,
  {96cfc3c6-a127-4eaa-bd4c-96d1f16d861d}, !- Handle
  0600|2200|SuperMarket|default|ext_lighting |default, !- Name
  {debbdbf4-204c-4739-aaea-7185da2f5aba}, !- Schedule Type Limits Name
  ,                                       !- Interpolate to Timestep
  24,                                     !- Hour 1
  0,                                      !- Minute 1
  1;                                      !- Value Until Time 1

OS:Schedule:Day,
  {e4f82c43-69b1-4ea7-a763-9e790f531c5e}, !- Handle
  0600|2200|SuperMarket|default|ext_lighting Summer Design Day, !- Name
  {debbdbf4-204c-4739-aaea-7185da2f5aba}, !- Schedule Type Limits Name
  ,                                       !- Interpolate to Timestep
  24,                                     !- Hour 1
  0,                                      !- Minute 1
  1;                                      !- Value Until Time 1

OS:Schedule:Day,
  {b8e14c7e-7e05-4022-9c45-05d637637c61}, !- Handle
  0600|2200|SuperMarket|default|ext_lighting Winter Design Day, !- Name
  {debbdbf4-204c-4739-aaea-7185da2f5aba}, !- Schedule Type Limits Name
  ,                                       !- Interpolate to Timestep
  24,                                     !- Hour 1
  0,                                      !- Minute 1
  1;                                      !- Value Until Time 1

OS:Schedule:Ruleset,
  {8d4c29a5-7dd8-403c-acc7-c56ecaf9716b}, !- Handle
  0600|2200|SuperMarket|default|air_velocity, !- Name
  {48cfe6ef-b17e-4f50-b692-0f01bfec2fd6}, !- Schedule Type Limits Name
  {c404714d-d3a9-4949-b88b-d1e123051d46}, !- Default Day Schedule Name
  {a50e68aa-2c73-4918-b028-7860fe8b443a}, !- Summer Design Day Schedule Name
  {9023f339-a0ef-4703-b63f-13ec11aaa05b}; !- Winter Design Day Schedule Name

OS:ScheduleTypeLimits,
  {48cfe6ef-b17e-4f50-b692-0f01bfec2fd6}, !- Handle
  Dimensionless Schedule Type Limits,     !- Name
  ,                                       !- Lower Limit Value {BasedOnField A4}
  ,                                       !- Upper Limit Value {BasedOnField A4}
  Continuous,                             !- Numeric Type
  Dimensionless;                          !- Unit Type

OS:Schedule:Day,
  {c404714d-d3a9-4949-b88b-d1e123051d46}, !- Handle
  0600|2200|SuperMarket|default|air_velocity |default, !- Name
  {48cfe6ef-b17e-4f50-b692-0f01bfec2fd6}, !- Schedule Type Limits Name
  ,                                       !- Interpolate to Timestep
  24,                                     !- Hour 1
  0,                                      !- Minute 1
  0.200152;                               !- Value Until Time 1

OS:Schedule:Day,
  {a50e68aa-2c73-4918-b028-7860fe8b443a}, !- Handle
  0600|2200|SuperMarket|default|air_velocity Summer Design Day, !- Name
  {48cfe6ef-b17e-4f50-b692-0f01bfec2fd6}, !- Schedule Type Limits Name
  ,                                       !- Interpolate to Timestep
  24,                                     !- Hour 1
  0,                                      !- Minute 1
  0.200152;                               !- Value Until Time 1

OS:Schedule:Day,
  {9023f339-a0ef-4703-b63f-13ec11aaa05b}, !- Handle
  0600|2200|SuperMarket|default|air_velocity Winter Design Day, !- Name
  {48cfe6ef-b17e-4f50-b692-0f01bfec2fd6}, !- Schedule Type Limits Name
  ,                                       !- Interpolate to Timestep
  24,                                     !- Hour 1
  0,                                      !- Minute 1
  0.200152;                               !- Value Until Time 1

OS:Schedule:Ruleset,
  {0582584e-8684-4f51-b07c-60795d805b87}, !- Handle
  0600|2200|SuperMarket|default|elevator, !- Name
  {800e2f20-4135-40fd-bc93-f963ebea06c5}, !- Schedule Type Limits Name
  {fa0388c0-113c-49bc-abec-64b4691267c2}, !- Default Day Schedule Name
  {a430d542-fe7a-4b6d-a751-a48e0e646b74}, !- Summer Design Day Schedule Name
  {42afca5f-b682-4d34-856a-b3a654a673d3}; !- Winter Design Day Schedule Name

OS:ScheduleTypeLimits,
  {800e2f20-4135-40fd-bc93-f963ebea06c5}, !- Handle
  Elevators Schedule Type Limits,         !- Name
  0,                                      !- Lower Limit Value {BasedOnField A4}
  1,                                      !- Upper Limit Value {BasedOnField A4}
  Continuous,                             !- Numeric Type
  Dimensionless;                          !- Unit Type

OS:Schedule:Day,
  {fa0388c0-113c-49bc-abec-64b4691267c2}, !- Handle
  0600|2200|SuperMarket|default|elevator |default, !- Name
  {800e2f20-4135-40fd-bc93-f963ebea06c5}, !- Schedule Type Limits Name
  ,                                       !- Interpolate to Timestep
  5,                                      !- Hour 1
  0,                                      !- Minute 1
  0,                                      !- Value Until Time 1
  5,                                      !- Hour 2
  30,                                     !- Minute 2
  0.17,                                   !- Value Until Time 2
  6,                                      !- Hour 3
  0,                                      !- Minute 3
  0.35,                                   !- Value Until Time 3
  6,                                      !- Hour 4
  30,                                     !- Minute 4
  0.52,                                   !- Value Until Time 4
  7,                                      !- Hour 5
  0,                                      !- Minute 5
  0.69,                                   !- Value Until Time 5
  7,                                      !- Hour 6
  30,                                     !- Minute 6
  0.54,                                   !- Value Until Time 6
  8,                                      !- Hour 7
  0,                                      !- Minute 7
  0.4,                                    !- Value Until Time 7
  8,                                      !- Hour 8
  30,                                     !- Minute 8
  0.41,                                   !- Value Until Time 8
  9,                                      !- Hour 9
  0,                                      !- Minute 9
  0.43,                                   !- Value Until Time 9
  9,                                      !- Hour 10
  30,                                     !- Minute 10
  0.44,                                   !- Value Until Time 10
  10,                                     !- Hour 11
  0,                                      !- Minute 11
  0.45,                                   !- Value Until Time 11
  10,                                     !- Hour 12
  30,                                     !- Minute 12
  0.46,                                   !- Value Until Time 12
  11,                                     !- Hour 13
  0,                                      !- Minute 13
  0.48,                                   !- Value Until Time 13
  11,                                     !- Hour 14
  30,                                     !- Minute 14
  0.49,                                   !- Value Until Time 14
  12,                                     !- Hour 15
  0,                                      !- Minute 15
  0.5,                                    !- Value Until Time 15
  12,                                     !- Hour 16
  30,                                     !- Minute 16
  0.51,                                   !- Value Until Time 16
  13,                                     !- Hour 17
  0,                                      !- Minute 17
  0.53,                                   !- Value Until Time 17
  13,                                     !- Hour 18
  30,                                     !- Minute 18
  0.54,                                   !- Value Until Time 18
  14,                                     !- Hour 19
  0,                                      !- Minute 19
  0.55,                                   !- Value Until Time 19
  14,                                     !- Hour 20
  30,                                     !- Minute 20
  0.54,                                   !- Value Until Time 20
  15,                                     !- Hour 21
  0,                                      !- Minute 21
  0.53,                                   !- Value Until Time 21
  15,                                     !- Hour 22
  30,                                     !- Minute 22
  0.52,                                   !- Value Until Time 22
  16,                                     !- Hour 23
  0,                                      !- Minute 23
  0.51,                                   !- Value Until Time 23
  16,                                     !- Hour 24
  30,                                     !- Minute 24
  0.5,                                    !- Value Until Time 24
  17,                                     !- Hour 25
  0,                                      !- Minute 25
  0.49,                                   !- Value Until Time 25
  17,                                     !- Hour 26
  30,                                     !- Minute 26
  0.48,                                   !- Value Until Time 26
  18,                                     !- Hour 27
  0,                                      !- Minute 27
  0.46,                                   !- Value Until Time 27
  18,                                     !- Hour 28
  30,                                     !- Minute 28
  0.45,                                   !- Value Until Time 28
  19,                                     !- Hour 29
  0,                                      !- Minute 29
  0.44,                                   !- Value Until Time 29
  19,                                     !- Hour 30
  30,                                     !- Minute 30
  0.43,                                   !- Value Until Time 30
  20,                                     !- Hour 31
  0,                                      !- Minute 31
  0.42,                                   !- Value Until Time 31
  20,                                     !- Hour 32
  30,                                     !- Minute 32
  0.41,                                   !- Value Until Time 32
  21,                                     !- Hour 33
  0,                                      !- Minute 33
  0.4,                                    !- Value Until Time 33
  21,                                     !- Hour 34
  30,                                     !- Minute 34
  0.5,                                    !- Value Until Time 34
  22,                                     !- Hour 35
  0,                                      !- Minute 35
  0.6,                                    !- Value Until Time 35
  22,                                     !- Hour 36
  30,                                     !- Minute 36
  0.46,                                   !- Value Until Time 36
  23,                                     !- Hour 37
  0,                                      !- Minute 37
  0.32,                                   !- Value Until Time 37
  23,                                     !- Hour 38
  30,                                     !- Minute 38
  0.18,                                   !- Value Until Time 38
  24,                                     !- Hour 39
  0,                                      !- Minute 39
  0.04;                                   !- Value Until Time 39

OS:Schedule:Day,
  {a430d542-fe7a-4b6d-a751-a48e0e646b74}, !- Handle
  0600|2200|SuperMarket|default|elevator Summer Design Day, !- Name
  {800e2f20-4135-40fd-bc93-f963ebea06c5}, !- Schedule Type Limits Name
  ,                                       !- Interpolate to Timestep
  5,                                      !- Hour 1
  0,                                      !- Minute 1
  0,                                      !- Value Until Time 1
  5,                                      !- Hour 2
  30,                                     !- Minute 2
  0.17,                                   !- Value Until Time 2
  6,                                      !- Hour 3
  0,                                      !- Minute 3
  0.35,                                   !- Value Until Time 3
  6,                                      !- Hour 4
  30,                                     !- Minute 4
  0.52,                                   !- Value Until Time 4
  7,                                      !- Hour 5
  0,                                      !- Minute 5
  0.69,                                   !- Value Until Time 5
  7,                                      !- Hour 6
  30,                                     !- Minute 6
  0.54,                                   !- Value Until Time 6
  8,                                      !- Hour 7
  0,                                      !- Minute 7
  0.4,                                    !- Value Until Time 7
  8,                                      !- Hour 8
  30,                                     !- Minute 8
  0.41,                                   !- Value Until Time 8
  9,                                      !- Hour 9
  0,                                      !- Minute 9
  0.43,                                   !- Value Until Time 9
  9,                                      !- Hour 10
  30,                                     !- Minute 10
  0.44,                                   !- Value Until Time 10
  10,                                     !- Hour 11
  0,                                      !- Minute 11
  0.45,                                   !- Value Until Time 11
  10,                                     !- Hour 12
  30,                                     !- Minute 12
  0.46,                                   !- Value Until Time 12
  11,                                     !- Hour 13
  0,                                      !- Minute 13
  0.48,                                   !- Value Until Time 13
  11,                                     !- Hour 14
  30,                                     !- Minute 14
  0.49,                                   !- Value Until Time 14