
OS:Version,
  {ac47a4d0-783f-462b-a5c9-4653e3120816}, !- Handle
  1.5.5;                                  !- Version Identifier

OS:ClimateZones,
  {135edfab-17e7-40db-a436-27d385a8cd6d}, !- Handle
  ,                                       !- Active Institution
  ,                                       !- Active Year
  ASHRAE,                                 !- Climate Zone Institution Name 1
  ANSI/ASHRAE Standard 169,               !- Climate Zone Document Name 1
  2006,                                   !- Climate Zone Document Year 1
  ,                                       !- Climate Zone Value 1
  CEC,                                    !- Climate Zone Institution Name 2
  California Climate Zone Descriptions,   !- Climate Zone Document Name 2
  1995,                                   !- Climate Zone Document Year 2
  ;                                       !- Climate Zone Value 2

OS:YearDescription,
  {513d8dda-86cb-442a-b01c-1f7f0e0ac70e}; !- Handle

OS:RadianceParameters,
  {270a96f1-3c86-4b75-a667-cdf22790e2c8}, !- Handle
  1,                                      !- Accumulated Rays per Record
  0,                                      !- Direct Threshold
  1,                                      !- Direct Certainty
  1,                                      !- Direct Jitter
  1,                                      !- Direct Pretest
  6,                                      !- Ambient Bounces VMX
  2,                                      !- Ambient Bounces DMX
  4050,                                   !- Ambient Divisions VMX
  512,                                    !- Ambient Divisions DMX
  256,                                    !- Ambient Supersamples
  0.001,                                  !- Limit Weight VMX
  0.001,                                  !- Limit Weight DMX
  500,                                    !- Klems Sampling Density
  146;                                    !- Sky Discretization Resolution

OS:SimulationControl,
  {2c487a4c-bac9-4ac5-b669-1e49d9da7c2b}, !- Handle
  ,                                       !- Do Zone Sizing Calculation
  ,                                       !- Do System Sizing Calculation
  ,                                       !- Do Plant Sizing Calculation
  No,                                     !- Run Simulation for Sizing Periods
  ,                                       !- Run Simulation for Weather File Run Periods
  0.04,                                   !- Loads Convergence Tolerance Value
  ,                                       !- Temperature Convergence Tolerance Value {deltaC}
  ,                                       !- Solar Distribution
  ,                                       !- Maximum Number of Warmup Days
  2;                                      !- Minimum Number of Warmup Days

OS:Sizing:Parameters,
  {dde5af6f-7923-4600-a28a-7556673a0266}, !- Handle
  1.25,                                   !- Heating Sizing Factor
  1.15;                                   !- Cooling Sizing Factor

OS:ProgramControl,
  {05027a99-f2b3-4aeb-afc6-1425fbb4371d}; !- Handle

OS:Timestep,
  {4ebc9f1e-4707-402e-9844-67eb1ffbd522}, !- Handle
  2;                                      !- Number of Timesteps per Hour

OS:OutputControl:ReportingTolerances,
  {65797aa2-06a9-45fe-b69d-bc6e060399d3}; !- Handle

OS:ConvergenceLimits,
  {9fc11aba-8822-4f3d-970c-46391ba4040d}; !- Handle

OS:ShadowCalculation,
  {ca758bea-4416-4626-9bba-3d8795c79bd6}, !- Handle
  7,                                      !- Calculation Frequency
  15000;                                  !- Maximum Figures in Shadow Overlap Calculations

OS:SurfaceConvectionAlgorithm:Inside,
  {aaabfc36-718a-4ab0-b622-f186ebb45230}, !- Handle
  TARP;                                   !- Algorithm

OS:SurfaceConvectionAlgorithm:Outside,
  {9a0a9f6f-4bbd-4b12-a121-9492a1fcd7d6}, !- Handle
  DOE-2;                                  !- Algorithm

OS:HeatBalanceAlgorithm,
  {9d93e563-e1e0-46d7-9e39-d1c8aceb7212}, !- Handle
  ConductionTransferFunction,             !- Algorithm
  200;                                    !- Surface Temperature Upper Limit {F}

OS:ZoneAirHeatBalanceAlgorithm,
  {8520d93e-310f-4696-9bcd-36228bfdd743}, !- Handle
  AnalyticalSolution;                     !- Algorithm

OS:ZoneAirContaminantBalance,
  {eb5fc3ae-fb22-4160-8fcb-3e3b22b000d3}; !- Handle

OS:ZoneCapacitanceMultiplier:ResearchSpecial,
  {4020ce4f-5a7a-4849-8028-8305d7b751b1}, !- Handle
  ,                                       !- Temperature Capacity Multiplier
  ,                                       !- Humidity Capacity Multiplier
  ;                                       !- Carbon Dioxide Capacity Multiplier

OS:RunPeriod,
  {28df894d-6af9-4fb8-8f56-df1753344aa3}, !- Handle
  Run Period 1,                           !- Name
  1,                                      !- Begin Month
  1,                                      !- Begin Day of Month
  12,                                     !- End Month
  31,                                     !- End Day of Month
  ,                                       !- Use Weather File Holidays and Special Days
  ,                                       !- Use Weather File Daylight Saving Period
  ,                                       !- Apply Weekend Holiday Rule
  ,                                       !- Use Weather File Rain Indicators
  ,                                       !- Use Weather File Snow Indicators
  ;                                       !- Number of Times Runperiod to be Repeated

OS:Building,
  {bf305633-c5a1-4881-9edf-ca5e1a8e1274}, !- Handle
  Building 1,                             !- Name
  ,                                       !- Building Sector Type
  ,                                       !- North Axis {deg}
  ,                                       !- Nominal Floor to Floor Height {m}
  ,                                       !- Space Type Name
  ,                                       !- Default Construction Set Name
  {89a07c1e-2fc4-4f87-8ef1-ecab126d655d}, !- Default Schedule Set Name
  ,                                       !- Standards Number of Stories
  ,                                       !- Standards Number of Above Ground Stories
  SuperMarket;                            !- Standards Building Type

OS:LifeCycleCost:Parameters,
  {231cf8a0-f0e7-4251-a99f-11f0d464e661}, !- Handle
  FEMP,                                   !- Analysis Type
  ,                                       !- Discounting Convention
  ,                                       !- Inflation Approach
  ,                                       !- Real Discount Rate
  ,                                       !- Nominal Discount Rate
  ,                                       !- Inflation
  ,                                       !- Base Date Month
  ,                                       !- Base Date Year
  ,                                       !- Service Date Month
  ,                                       !- Service Date Year
  ,                                       !- Length of Study Period in Years
  ,                                       !- Tax Rate
  ,                                       !- Depreciation Method
  Yes;                                    !- Use NIST Fuel Escalation Rates

OS:Facility,
  {3ba8e45b-b833-44eb-a723-ea6c3946dc96}; !- Handle

OS:SpaceType,
  {dce21522-8f83-4dcd-84ec-57e7242b3086}, !- Handle
  SuperMarket|Sales/Produce|DOE Ref 1980-2004|ASHRAE 169-2006-5A, !- Name
  {0018c187-6aee-489a-abf8-1458f0b6daba}, !- Default Construction Set Name
  {0d68948e-f707-47ab-a753-b81fab3f2817}, !- Default Schedule Set Name
  {43f32a13-ce8a-4463-8292-9e0ad60273c8}, !- Group Rendering Name
  {7ceb5b63-57d4-4663-9428-1dbd313e3640}, !- Design Specification Outdoor Air Object Name
  SuperMarket,                            !- Standards Building Type
  Sales/Produce;                          !- Standards Space Type

OS:Rendering:Color,
  {43f32a13-ce8a-4463-8292-9e0ad60273c8}, !- Handle
  Rendering Color 1,                      !- Name
  230,                                    !- Rendering Red Value
  196,                                    !- Rendering Green Value
  120;                                    !- Rendering Blue Value

OS:SpaceType,
  {9dedbc90-33e5-4359-831f-5fa82d3aac0c}, !- Handle
  SuperMarket|DryStorage|DOE Ref 1980-2004|ASHRAE 169-2006-5A, !- Name
  {0018c187-6aee-489a-abf8-1458f0b6daba}, !- Default Construction Set Name
  {ad16fd4b-9f1f-4e22-a398-b79090f0494c}, !- Default Schedule Set Name
  {97c26188-b87d-4c31-a581-fe16c97d98e5}, !- Group Rendering Name
  {32ec2dea-a40e-4dca-ba69-cee393550075}, !- Design Specification Outdoor Air Object Name
  SuperMarket,                            !- Standards Building Type
  DryStorage;                             !- Standards Space Type

OS:Rendering:Color,
  {97c26188-b87d-4c31-a581-fe16c97d98e5}, !- Handle
  Rendering Color 2,                      !- Name
  120,                                    !- Rendering Red Value
  149,                                    !- Rendering Green Value
  230;                                    !- Rendering Blue Value

OS:SpaceType,
  {811f9574-4684-46e0-b454-5bb92cc3bfa9}, !- Handle
  SuperMarket|Deli/Bakery|DOE Ref 1980-2004|ASHRAE 169-2006-5A, !- Name
  {0018c187-6aee-489a-abf8-1458f0b6daba}, !- Default Construction Set Name
  {c356f296-f0a7-41d0-8098-0fefea53b5b2}, !- Default Schedule Set Name
  {0348129e-dacf-4dc9-882a-4c4b40878afb}, !- Group Rendering Name
  {7c79365a-8ad6-4e54-ab34-f3a18034a581}, !- Design Specification Outdoor Air Object Name
  SuperMarket,                            !- Standards Building Type
  Deli/Bakery;                            !- Standards Space Type

OS:Rendering:Color,
  {0348129e-dacf-4dc9-882a-4c4b40878afb}, !- Handle
  Rendering Color 3,                      !- Name
  31,                                     !- Rendering Red Value
  169,                                    !- Rendering Green Value
  34;                                     !- Rendering Blue Value

OS:SpaceType,
  {397711f7-33f6-4cbe-acdf-274e81c81248}, !- Handle
  SuperMarket|Office|DOE Ref 1980-2004|ASHRAE 169-2006-5A, !- Name
  {0018c187-6aee-489a-abf8-1458f0b6daba}, !- Default Construction Set Name
  {3b1965b6-3ecd-4891-ac7d-c27e81ae4153}, !- Default Schedule Set Name
  {2dfbb5fb-8da5-4f23-bea5-cc679e78594d}, !- Group Rendering Name
  {d10fceb0-f536-43c2-9176-045baa07e7fd}, !- Design Specification Outdoor Air Object Name
  SuperMarket,                            !- Standards Building Type
  Office;                                 !- Standards Space Type

OS:Rendering:Color,
  {2dfbb5fb-8da5-4f23-bea5-cc679e78594d}, !- Handle
  Rendering Color 4,                      !- Name
  120,                                    !- Rendering Red Value
  230,                                    !- Rendering Green Value
  199;                                    !- Rendering Blue Value

OS:Schedule:Ruleset,
  {f400c18e-a49d-4d7d-bf00-5b024233af01}, !- Handle
  0600|2200|SuperMarket|default|hoo,      !- Name
  {f84e68d7-fc99-4fdc-b078-308b702384aa}, !- Schedule Type Limits Name
  {b7f2ce06-67bd-4423-b037-9c5180fa2e41}, !- Default Day Schedule Name
  {7113d693-fc38-41dc-a609-67297ef38ed2}, !- Summer Design Day Schedule Name
  {317baba4-928f-498a-818f-8163012be44a}; !- Winter Design Day Schedule Name

OS:Schedule:Day,
  {b7f2ce06-67bd-4423-b037-9c5180fa2e41}, !- Handle
  0600|2200|SuperMarket|default|hoo Schedule Week Day, !- Name
  {f84e68d7-fc99-4fdc-b078-308b702384aa}, !- Schedule Type Limits Name
  ,                                       !- Interpolate to Timestep
  6,                                      !- Hour 1
  0,                                      !- Minute 1
  0,                                      !- Value Until Time 1
  22,                                     !- Hour 2
  0,                                      !- Minute 2
  1,                                      !- Value Until Time 2
  24,                                     !- Hour 3
  0,                                      !- Minute 3
  0;                                      !- Value Until Time 3

OS:Schedule:Day,
  {aedc6dad-dd88-4ba2-bbe2-8d320513732e}, !- Handle
  Schedule Day 2,                         !- Name
  ,                                       !- Schedule Type Limits Name
  ,                                       !- Interpolate to Timestep
  24,                                     !- Hour 1
  0,                                      !- Minute 1
  0;                                      !- Value Until Time 1

OS:Schedule:Day,
  {317baba4-928f-498a-818f-8163012be44a}, !- Handle
  0600|2200|SuperMarket|default|hoo Winter Design Day, !- Name
  {f84e68d7-fc99-4fdc-b078-308b702384aa}, !- Schedule Type Limits Name
  ,                                       !- Interpolate to Timestep
  24,                                     !- Hour 1
  0,                                      !- Minute 1
  0;                                      !- Value Until Time 1

OS:Schedule:Day,
  {5a51c826-ecd1-4d23-bcf8-380687dbd97d}, !- Handle
  Schedule Day 3,                         !- Name
  ,                                       !- Schedule Type Limits Name
  ,                                       !- Interpolate to Timestep
  24,                                     !- Hour 1
  0,                                      !- Minute 1
  0;                                      !- Value Until Time 1

OS:Schedule:Day,
  {7113d693-fc38-41dc-a609-67297ef38ed2}, !- Handle
  0600|2200|SuperMarket|default|hoo Summer Design Day, !- Name
  {f84e68d7-fc99-4fdc-b078-308b702384aa}, !- Schedule Type Limits Name
  ,                                       !- Interpolate to Timestep
  24,                                     !- Hour 1
  0,                                      !- Minute 1
  1;                                      !- Value Until Time 1

OS:DefaultScheduleSet,
  {89a07c1e-2fc4-4f87-8ef1-ecab126d655d}, !- Handle
  Building Hours of Operation,            !- Name
  {f400c18e-a49d-4d7d-bf00-5b024233af01}, !- Hours of Operation Schedule Name
  ,                                       !- Number of People Schedule Name
  ,                                       !- People Activity Level Schedule Name
  ,                                       !- Lighting Schedule Name
  ,                                       !- Electric Equipment Schedule Name
  ,                                       !- Gas Equipment Schedule Name
  ,                                       !- Hot Water Equipment Schedule Name
  ,                                       !- Infiltration Schedule Name
  ,                                       !- Steam Equipment Schedule Name
  ;                                       !- Other Equipment Schedule Name

OS:ScheduleTypeLimits,
  {f84e68d7-fc99-4fdc-b078-308b702384aa}, !- Handle
  OnOff,                                  !- Name
  0,                                      !- Lower Limit Value {BasedOnField A4}
  1,                                      !- Upper Limit Value {BasedOnField A4}
  Discrete,                               !- Numeric Type
  Availability;                           !- Unit Type

OS:Schedule:Ruleset,
  {607ed2a3-5213-492f-be86-9df58240d90b}, !- Handle
  0600|2200|SuperMarket|default|ext_lighting, !- Name
  {548a80fb-2e94-4a04-b750-9446f302068d}, !- Schedule Type Limits Name
  {02550587-ed24-4cc0-adfb-7fb65b456557}, !- Default Day Schedule Name
  {83ecd894-a5b9-41f3-96a5-7c765abb8f84}, !- Summer Design Day Schedule Name
  {92c299d2-8d6f-475e-9fe4-aaa95bd1d79e}; !- Winter Design Day Schedule Name

OS:ScheduleTypeLimits,
  {548a80fb-2e94-4a04-b750-9446f302068d}, !- Handle
  Lights Schedule Type Limits,            !- Name
  0,                                      !- Lower Limit Value {BasedOnField A4}
  1,                                      !- Upper Limit Value {BasedOnField A4}
  Continuous,                             !- Numeric Type
  Dimensionless;                          !- Unit Type

OS:Schedule:Day,
  {02550587-ed24-4cc0-adfb-7fb65b456557}, !- Handle
  0600|2200|SuperMarket|default|ext_lighting |default, !- Name
  {548a80fb-2e94-4a04-b750-9446f302068d}, !- Schedule Type Limits Name
  ,                                       !- Interpolate to Timestep
  24,                                     !- Hour 1
  0,                                      !- Minute 1
  1;                                      !- Value Until Time 1

OS:Schedule:Day,
  {83ecd894-a5b9-41f3-96a5-7c765abb8f84}, !- Handle
  0600|2200|SuperMarket|default|ext_lighting Summer Design Day, !- Name
  {548a80fb-2e94-4a04-b750-9446f302068d}, !- Schedule Type Limits Name
  ,                                       !- Interpolate to Timestep
  24,                                     !- Hour 1
  0,                                      !- Minute 1
  1;                                      !- Value Until Time 1

OS:Schedule:Day,
  {92c299d2-8d6f-475e-9fe4-aaa95bd1d79e}, !- Handle
  0600|2200|SuperMarket|default|ext_lighting Winter Design Day, !- Name
  {548a80fb-2e94-4a04-b750-9446f302068d}, !- Schedule Type Limits Name
  ,                                       !- Interpolate to Timestep
  24,                                     !- Hour 1
  0,                                      !- Minute 1
  1;                                      !- Value Until Time 1

OS:Schedule:Ruleset,
  {5f1df86c-b62f-4a7c-b069-d40ccd4cfa89}, !- Handle
  0600|2200|SuperMarket|default|air_velocity, !- Name
  {ded32919-3b02-4ba5-8be9-9f7ee9d91c8a}, !- Schedule Type Limits Name
  {d23d0f5b-7630-4587-9c79-f1bd8f353426}, !- Default Day Schedule Name
  {1c1adc76-d322-4e36-ad65-90d0a67f4a4b}, !- Summer Design Day Schedule Name
  {7248dee7-f724-45f6-88b3-840386f85241}; !- Winter Design Day Schedule Name

OS:ScheduleTypeLimits,
  {ded32919-3b02-4ba5-8be9-9f7ee9d91c8a}, !- Handle
  Dimensionless Schedule Type Limits,     !- Name
  ,                                       !- Lower Limit Value {BasedOnField A4}
  ,                                       !- Upper Limit Value {BasedOnField A4}
  Continuous,                             !- Numeric Type
  Dimensionless;                          !- Unit Type

OS:Schedule:Day,
  {d23d0f5b-7630-4587-9c79-f1bd8f353426}, !- Handle
  0600|2200|SuperMarket|default|air_velocity |default, !- Name
  {ded32919-3b02-4ba5-8be9-9f7ee9d91c8a}, !- Schedule Type Limits Name
  ,                                       !- Interpolate to Timestep
  24,                                     !- Hour 1
  0,                                      !- Minute 1
  0.200152;                               !- Value Until Time 1

OS:Schedule:Day,
  {1c1adc76-d322-4e36-ad65-90d0a67f4a4b}, !- Handle
  0600|2200|SuperMarket|default|air_velocity Summer Design Day, !- Name
  {ded32919-3b02-4ba5-8be9-9f7ee9d91c8a}, !- Schedule Type Limits Name
  ,                                       !- Interpolate to Timestep
  24,                                     !- Hour 1
  0,                                      !- Minute 1
  0.200152;                               !- Value Until Time 1

OS:Schedule:Day,
  {7248dee7-f724-45f6-88b3-840386f85241}, !- Handle
  0600|2200|SuperMarket|default|air_velocity Winter Design Day, !- Name
  {ded32919-3b02-4ba5-8be9-9f7ee9d91c8a}, !- Schedule Type Limits Name
  ,                                       !- Interpolate to Timestep
  24,                                     !- Hour 1
  0,                                      !- Minute 1
  0.200152;                               !- Value Until Time 1

OS:Schedule:Ruleset,
  {fd655bac-9443-4572-9a87-181d4331cd93}, !- Handle
  0600|2200|SuperMarket|default|elevator, !- Name
  {1ee63193-4f00-463d-8307-f01ec0fd6852}, !- Schedule Type Limits Name
  {21b1d4e4-b471-49f7-8d3c-f65c2e3b1d76}, !- Default Day Schedule Name
  {851bc82b-400c-42a2-8cc5-262e534f7f8e}, !- Summer Design Day Schedule Name
  {b06f45ee-b945-4702-8ce4-884f24610ca9}; !- Winter Design Day Schedule Name

OS:ScheduleTypeLimits,
  {1ee63193-4f00-463d-8307-f01ec0fd6852}, !- Handle
  Elevators Schedule Type Limits,         !- Name
  0,                                      !- Lower Limit Value {BasedOnField A4}
  1,                                      !- Upper Limit Value {BasedOnField A4}
  Continuous,                             !- Numeric Type
  Dimensionless;                          !- Unit Type

OS:Schedule:Day,
  {21b1d4e4-b471-49f7-8d3c-f65c2e3b1d76}, !- Handle
  0600|2200|SuperMarket|default|elevator |default, !- Name
  {1ee63193-4f00-463d-8307-f01ec0fd6852}, !- Schedule Type Limits Name
  ,                                       !- Interpolate to Timestep
  5,                                      !- Hour 1
  0,                                      !- Minute 1
  0,                                      !- Value Until Time 1
  5,                                      !- Hour 2
  30,                                     !- Minute 2
  0.17,                                   !- Value Until Time 2
  6,                                      !- Hour 3
  0,                                      !- Minute 3
  0.35,                                   !- Value Until Time 3
  6,                                      !- Hour 4
  30,                                     !- Minute 4
  0.52,                                   !- Value Until Time 4
  7,                                      !- Hour 5
  0,                                      !- Minute 5
  0.69,                                   !- Value Until Time 5
  7,                                      !- Hour 6
  30,                                     !- Minute 6
  0.54,                                   !- Value Until Time 6
  8,                                      !- Hour 7
  0,                                      !- Minute 7
  0.4,                                    !- Value Until Time 7
  8,                                      !- Hour 8
  30,                                     !- Minute 8
  0.41,                                   !- Value Until Time 8
  9,                                      !- Hour 9
  0,                                      !- Minute 9
  0.43,                                   !- Value Until Time 9
  9,                                      !- Hour 10
  30,                                     !- Minute 10
  0.44,                                   !- Value Until Time 10
  10,                                     !- Hour 11
  0,                                      !- Minute 11
  0.45,                                   !- Value Until Time 11
  10,                                     !- Hour 12
  30,                                     !- Minute 12
  0.46,                                   !- Value Until Time 12
  11,                                     !- Hour 13
  0,                                      !- Minute 13
  0.48,                                   !- Value Until Time 13
  11,                                     !- Hour 14
  30,                                     !- Minute 14
  0.49,                                   !- Value Until Time 14
  12,                                     !- Hour 15
  0,                                      !- Minute 15
  0.5,                                    !- Value Until Time 15
  12,                                     !- Hour 16
  30,                                     !- Minute 16
  0.51,                                   !- Value Until Time 16
  13,                                     !- Hour 17
  0,                                      !- Minute 17
  0.53,                                   !- Value Until Time 17
  13,                                     !- Hour 18
  30,                                     !- Minute 18
  0.54,                                   !- Value Until Time 18
  14,                                     !- Hour 19
  0,                                      !- Minute 19
  0.55,                                   !- Value Until Time 19
  14,                                     !- Hour 20
  30,                                     !- Minute 20
  0.54,                                   !- Value Until Time 20
  15,                                     !- Hour 21
  0,                                      !- Minute 21
  0.53,                                   !- Value Until Time 21
  15,                                     !- Hour 22
  30,                                     !- Minute 22
  0.52,                                   !- Value Until Time 22
  16,                                     !- Hour 23
  0,                                      !- Minute 23
  0.51,                                   !- Value Until Time 23
  16,                                     !- Hour 24
  30,                                     !- Minute 24
  0.5,                                    !- Value Until Time 24
  17,                                     !- Hour 25
  0,                                      !- Minute 25
  0.49,                                   !- Value Until Time 25
  17,                                     !- Hour 26
  30,                                     !- Minute 26
  0.48,                                   !- Value Until Time 26
  18,                                     !- Hour 27
  0,                                      !- Minute 27
  0.46,                                   !- Value Until Time 27
  18,                                     !- Hour 28
  30,                                     !- Minute 28
  0.45,                                   !- Value Until Time 28
  19,                                     !- Hour 29
  0,                                      !- Minute 29
  0.44,                                   !- Value Until Time 29
  19,                                     !- Hour 30
  30,                                     !- Minute 30
  0.43,                                   !- Value Until Time 30
  20,                                     !- Hour 31
  0,                                      !- Minute 31
  0.42,                                   !- Value Until Time 31
  20,                                     !- Hour 32
  30,                                     !- Minute 32
  0.41,                                   !- Value Until Time 32
  21,                                     !- Hour 33
  0,                                      !- Minute 33
  0.4,                                    !- Value Until Time 33
  21,                                     !- Hour 34
  30,                                     !- Minute 34
  0.5,                                    !- Value Until Time 34
  22,                                     !- Hour 35
  0,                                      !- Minute 35
  0.6,                                    !- Value Until Time 35
  22,                                     !- Hour 36
  30,                                     !- Minute 36
  0.46,                                   !- Value Until Time 36
  23,                                     !- Hour 37
  0,                                      !- Minute 37
  0.32,                                   !- Value Until Time 37
  23,                                     !- Hour 38
  30,                                     !- Minute 38
  0.18,                                   !- Value Until Time 38
  24,                                     !- Hour 39
  0,                                      !- Minute 39
  0.04;                                   !- Value Until Time 39

OS:Schedule:Day,
  {851bc82b-400c-42a2-8cc5-262e534f7f8e}, !- Handle
  0600|2200|SuperMarket|default|elevator Summer Design Day, !- Name
  {1ee63193-4f00-463d-8307-f01ec0fd6852}, !- Schedule Type Limits Name
  ,                                       !- Interpolate to Timestep
  5,                                      !- Hour 1
  0,                                      !- Minute 1
  0,                                      !- Value Until Time 1
  5,                                      !- Hour 2
  30,                                     !- Minute 2
  0.17,                                   !- Value Until Time 2
  6,                                      !- Hour 3
  0,                                      !- Minute 3
  0.35,                                   !- Value Until Time 3
  6,                                      !- Hour 4
  30,                                     !- Minute 4
  0.52,                                   !- Value Until Time 4
  7,                                      !- Hour 5
  0,                                      !- Minute 5
  0.69,                                   !- Value Until Time 5
  7,                                      !- Hour 6
  30,                                     !- Minute 6
  0.54,                                   !- Value Until Time 6
  8,                                      !- Hour 7
  0,                                      !- Minute 7
  0.4,                                    !- Value Until Time 7
  8,                                      !- Hour 8
  30,                                     !- Minute 8
  0.41,                                   !- Value Until Time 8
  9,                                      !- Hour 9
  0,                                      !- Minute 9
  0.43,                                   !- Value Until Time 9
  9,                                      !- Hour 10
  30,                                     !- Minute 10
  0.44,                                   !- Value Until Time 10
  10,                                     !- Hour 11
  0,                                      !- Minute 11
  0.45,                                   !- Value Until Time 11
  10,                                     !- Hour 12
  30,                                     !- Minute 12
  0.46,                                   !- Value Until Time 12
  11,                                     !- Hour 13
  0,                                      !- Minute 13
  0.48,                                   !- Value Until Time 13
  11,                                     !- Hour 14
  30,                                     !- Minute 14
  0.49,                                   !- Value Until Time 14