
OS:Version,
  {2fa9f5e1-2535-4809-9e91-b8acedbbba58}, !- Handle
  1.5.5;                                  !- Version Identifier

OS:ClimateZones,
  {135edfab-17e7-40db-a436-27d385a8cd6d}, !- Handle
  ,                                       !- Active Institution
  ,                                       !- Active Year
  ASHRAE,                                 !- Climate Zone Institution Name 1
  ANSI/ASHRAE Standard 169,               !- Climate Zone Document Name 1
  2006,                                   !- Climate Zone Document Year 1
  ,                                       !- Climate Zone Value 1
  CEC,                                    !- Climate Zone Institution Name 2
  California Climate Zone Descriptions,   !- Climate Zone Document Name 2
  1995,                                   !- Climate Zone Document Year 2
  ;                                       !- Climate Zone Value 2

OS:YearDescription,
  {513d8dda-86cb-442a-b01c-1f7f0e0ac70e}; !- Handle

OS:RadianceParameters,
  {270a96f1-3c86-4b75-a667-cdf22790e2c8}, !- Handle
  1,                                      !- Accumulated Rays per Record
  0,                                      !- Direct Threshold
  1,                                      !- Direct Certainty
  1,                                      !- Direct Jitter
  1,                                      !- Direct Pretest
  6,                                      !- Ambient Bounces VMX
  2,                                      !- Ambient Bounces DMX
  4050,                                   !- Ambient Divisions VMX
  512,                                    !- Ambient Divisions DMX
  256,                                    !- Ambient Supersamples
  0.001,                                  !- Limit Weight VMX
  0.001,                                  !- Limit Weight DMX
  500,                                    !- Klems Sampling Density
  146;                                    !- Sky Discretization Resolution

OS:SimulationControl,
  {2c487a4c-bac9-4ac5-b669-1e49d9da7c2b}, !- Handle
  ,                                       !- Do Zone Sizing Calculation
  ,                                       !- Do System Sizing Calculation
  ,                                       !- Do Plant Sizing Calculation
  No,                                     !- Run Simulation for Sizing Periods
  ,                                       !- Run Simulation for Weather File Run Periods
  0.04,                                   !- Loads Convergence Tolerance Value
  ,                                       !- Temperature Convergence Tolerance Value {deltaC}
  ,                                       !- Solar Distribution
  ,                                       !- Maximum Number of Warmup Days
  2;                                      !- Minimum Number of Warmup Days

OS:Sizing:Parameters,
  {dde5af6f-7923-4600-a28a-7556673a0266}, !- Handle
  1.25,                                   !- Heating Sizing Factor
  1.15;                                   !- Cooling Sizing Factor

OS:ProgramControl,
  {05027a99-f2b3-4aeb-afc6-1425fbb4371d}; !- Handle

OS:Timestep,
  {4ebc9f1e-4707-402e-9844-67eb1ffbd522}, !- Handle
  2;                                      !- Number of Timesteps per Hour

OS:OutputControl:ReportingTolerances,
  {65797aa2-06a9-45fe-b69d-bc6e060399d3}; !- Handle

OS:ConvergenceLimits,
  {9fc11aba-8822-4f3d-970c-46391ba4040d}; !- Handle

OS:ShadowCalculation,
  {ca758bea-4416-4626-9bba-3d8795c79bd6}, !- Handle
  7,                                      !- Calculation Frequency
  15000;                                  !- Maximum Figures in Shadow Overlap Calculations

OS:SurfaceConvectionAlgorithm:Inside,
  {aaabfc36-718a-4ab0-b622-f186ebb45230}, !- Handle
  TARP;                                   !- Algorithm

OS:SurfaceConvectionAlgorithm:Outside,
  {9a0a9f6f-4bbd-4b12-a121-9492a1fcd7d6}, !- Handle
  DOE-2;                                  !- Algorithm

OS:HeatBalanceAlgorithm,
  {9d93e563-e1e0-46d7-9e39-d1c8aceb7212}, !- Handle
  ConductionTransferFunction,             !- Algorithm
  200;                                    !- Surface Temperature Upper Limit {F}

OS:ZoneAirHeatBalanceAlgorithm,
  {8520d93e-310f-4696-9bcd-36228bfdd743}, !- Handle
  AnalyticalSolution;                     !- Algorithm

OS:ZoneAirContaminantBalance,
  {eb5fc3ae-fb22-4160-8fcb-3e3b22b000d3}; !- Handle

OS:ZoneCapacitanceMultiplier:ResearchSpecial,
  {4020ce4f-5a7a-4849-8028-8305d7b751b1}, !- Handle
  ,                                       !- Temperature Capacity Multiplier
  ,                                       !- Humidity Capacity Multiplier
  ;                                       !- Carbon Dioxide Capacity Multiplier

OS:RunPeriod,
  {28df894d-6af9-4fb8-8f56-df1753344aa3}, !- Handle
  Run Period 1,                           !- Name
  1,                                      !- Begin Month
  1,                                      !- Begin Day of Month
  12,                                     !- End Month
  31,                                     !- End Day of Month
  ,                                       !- Use Weather File Holidays and Special Days
  ,                                       !- Use Weather File Daylight Saving Period
  ,                                       !- Apply Weekend Holiday Rule
  ,                                       !- Use Weather File Rain Indicators
  ,                                       !- Use Weather File Snow Indicators
  ;                                       !- Number of Times Runperiod to be Repeated

OS:Building,
  {bf305633-c5a1-4881-9edf-ca5e1a8e1274}, !- Handle
  Building 1,                             !- Name
  ,                                       !- Building Sector Type
  ,                                       !- North Axis {deg}
  ,                                       !- Nominal Floor to Floor Height {m}
  ,                                       !- Space Type Name
  ,                                       !- Default Construction Set Name
  {4d0746ff-cc7e-42ad-9883-13631cd5023b}, !- Default Schedule Set Name
  ,                                       !- Standards Number of Stories
  ,                                       !- Standards Number of Above Ground Stories
  Warehouse;                              !- Standards Building Type

OS:LifeCycleCost:Parameters,
  {231cf8a0-f0e7-4251-a99f-11f0d464e661}, !- Handle
  FEMP,                                   !- Analysis Type
  ,                                       !- Discounting Convention
  ,                                       !- Inflation Approach
  ,                                       !- Real Discount Rate
  ,                                       !- Nominal Discount Rate
  ,                                       !- Inflation
  ,                                       !- Base Date Month
  ,                                       !- Base Date Year
  ,                                       !- Service Date Month
  ,                                       !- Service Date Year
  ,                                       !- Length of Study Period in Years
  ,                                       !- Tax Rate
  ,                                       !- Depreciation Method
  Yes;                                    !- Use NIST Fuel Escalation Rates

OS:Facility,
  {3ba8e45b-b833-44eb-a723-ea6c3946dc96}; !- Handle

OS:SpaceType,
  {208a8f5b-ea1e-42b3-b41f-4c1ef15cef9d}, !- Handle
  Warehouse|BlendA|DOE Ref 1980-2004|ASHRAE 169-2006-5A, !- Name
  {4d85b2f9-d3f9-49e3-8607-74f4b0033fc6}, !- Default Construction Set Name
  ,                                       !- Default Schedule Set Name
  {a65ba9f1-9c3e-4ebf-b8c9-903c942fced7}, !- Group Rendering Name
  {5aef4253-a0db-4707-9e71-0e030d178f7e}, !- Design Specification Outdoor Air Object Name
  Warehouse,                              !- Standards Building Type
  BlendA;                                 !- Standards Space Type

OS:Rendering:Color,
  {a65ba9f1-9c3e-4ebf-b8c9-903c942fced7}, !- Handle
  Rendering Color 1,                      !- Name
  41,                                     !- Rendering Red Value
  31,                                     !- Rendering Green Value
  169;                                    !- Rendering Blue Value

OS:SpaceType,
  {46400dcd-c0cd-454e-be78-3fbf5802f7aa}, !- Handle
  Warehouse|Office|DOE Ref 1980-2004|ASHRAE 169-2006-5A, !- Name
  {4d85b2f9-d3f9-49e3-8607-74f4b0033fc6}, !- Default Construction Set Name
  {81124284-9cc8-4241-bc44-c286021ffe6d}, !- Default Schedule Set Name
  {ba429da9-8856-43d2-9872-20abbe8070fb}, !- Group Rendering Name
  {480420e1-a45e-43e2-9735-67586fc43ff4}, !- Design Specification Outdoor Air Object Name
  Warehouse,                              !- Standards Building Type
  Office;                                 !- Standards Space Type

OS:Rendering:Color,
  {ba429da9-8856-43d2-9872-20abbe8070fb}, !- Handle
  Rendering Color 2,                      !- Name
  120,                                    !- Rendering Red Value
  230,                                    !- Rendering Green Value
  199;                                    !- Rendering Blue Value

OS:Schedule:Ruleset,
  {d09f6c12-544b-4b0f-933d-7c36548d87fb}, !- Handle
  0700|1700|Warehouse|default|hoo,        !- Name
  {4a78ca48-b5c2-4a08-89cf-26f0a7eadeed}, !- Schedule Type Limits Name
  {e7b2cd11-bc5d-4b13-98a9-0818a3e3edf9}, !- Default Day Schedule Name
  {e919ee24-a50c-4028-8955-01890dad91ae}, !- Summer Design Day Schedule Name
  {24a9ce55-8b42-4ec7-b1ee-6b3ee2689d26}; !- Winter Design Day Schedule Name

OS:Schedule:Day,
  {e7b2cd11-bc5d-4b13-98a9-0818a3e3edf9}, !- Handle
  0700|1700|Warehouse|default|hoo Schedule Week Day, !- Name
  {4a78ca48-b5c2-4a08-89cf-26f0a7eadeed}, !- Schedule Type Limits Name
  ,                                       !- Interpolate to Timestep
  7,                                      !- Hour 1
  0,                                      !- Minute 1
  0,                                      !- Value Until Time 1
  17,                                     !- Hour 2
  0,                                      !- Minute 2
  1,                                      !- Value Until Time 2
  24,                                     !- Hour 3
  0,                                      !- Minute 3
  0;                                      !- Value Until Time 3

OS:Schedule:Day,
  {5deb15dc-075f-4b8a-867b-f268cc11d614}, !- Handle
  Schedule Day 2,                         !- Name
  ,                                       !- Schedule Type Limits Name
  ,                                       !- Interpolate to Timestep
  24,                                     !- Hour 1
  0,                                      !- Minute 1
  0;                                      !- Value Until Time 1

OS:Schedule:Day,
  {24a9ce55-8b42-4ec7-b1ee-6b3ee2689d26}, !- Handle
  0700|1700|Warehouse|default|hoo Winter Design Day, !- Name
  {4a78ca48-b5c2-4a08-89cf-26f0a7eadeed}, !- Schedule Type Limits Name
  ,                                       !- Interpolate to Timestep
  24,                                     !- Hour 1
  0,                                      !- Minute 1
  0;                                      !- Value Until Time 1

OS:Schedule:Day,
  {79e5ec81-c68e-4f1b-b512-e76bb5d6a4f6}, !- Handle
  Schedule Day 3,                         !- Name
  ,                                       !- Schedule Type Limits Name
  ,                                       !- Interpolate to Timestep
  24,                                     !- Hour 1
  0,                                      !- Minute 1
  0;                                      !- Value Until Time 1

OS:Schedule:Day,
  {e919ee24-a50c-4028-8955-01890dad91ae}, !- Handle
  0700|1700|Warehouse|default|hoo Summer Design Day, !- Name
  {4a78ca48-b5c2-4a08-89cf-26f0a7eadeed}, !- Schedule Type Limits Name
  ,                                       !- Interpolate to Timestep
  24,                                     !- Hour 1
  0,                                      !- Minute 1
  1;                                      !- Value Until Time 1

OS:DefaultScheduleSet,
  {4d0746ff-cc7e-42ad-9883-13631cd5023b}, !- Handle
  Building Hours of Operation,            !- Name
  {d09f6c12-544b-4b0f-933d-7c36548d87fb}, !- Hours of Operation Schedule Name
  ,                                       !- Number of People Schedule Name
  ,                                       !- People Activity Level Schedule Name
  ,                                       !- Lighting Schedule Name
  ,                                       !- Electric Equipment Schedule Name
  ,                                       !- Gas Equipment Schedule Name
  ,                                       !- Hot Water Equipment Schedule Name
  ,                                       !- Infiltration Schedule Name
  ,                                       !- Steam Equipment Schedule Name
  ;                                       !- Other Equipment Schedule Name

OS:ScheduleTypeLimits,
  {4a78ca48-b5c2-4a08-89cf-26f0a7eadeed}, !- Handle
  OnOff,                                  !- Name
  0,                                      !- Lower Limit Value {BasedOnField A4}
  1,                                      !- Upper Limit Value {BasedOnField A4}
  Discrete,                               !- Numeric Type
  Availability;                           !- Unit Type

OS:Schedule:Ruleset,
  {5a2a947d-9adf-45e2-bd56-741749d3bfae}, !- Handle
  0700|1700|Warehouse|default|lighting,   !- Name
  {7afbf4b8-1f3d-4beb-9cf6-f99ae0329c62}, !- Schedule Type Limits Name
  {b00c2383-fda8-42da-b8c9-58ddaf76347a}, !- Default Day Schedule Name
  {179151f4-362b-4ce2-963b-a4ff634156d1}, !- Summer Design Day Schedule Name
  {904f408f-b22b-4aee-8c15-ff5299f64c2e}; !- Winter Design Day Schedule Name

OS:ScheduleTypeLimits,
  {7afbf4b8-1f3d-4beb-9cf6-f99ae0329c62}, !- Handle
  Lights Schedule Type Limits,            !- Name
  0,                                      !- Lower Limit Value {BasedOnField A4}
  1,                                      !- Upper Limit Value {BasedOnField A4}
  Continuous,                             !- Numeric Type
  Dimensionless;                          !- Unit Type

OS:Schedule:Day,
  {b00c2383-fda8-42da-b8c9-58ddaf76347a}, !- Handle
  0700|1700|Warehouse|default|lighting |default, !- Name
  {7afbf4b8-1f3d-4beb-9cf6-f99ae0329c62}, !- Schedule Type Limits Name
  ,                                       !- Interpolate to Timestep
  7,                                      !- Hour 1
  0,                                      !- Minute 1
  0.1,                                    !- Value Until Time 1
  8,                                      !- Hour 2
  0,                                      !- Minute 2
  0.4,                                    !- Value Until Time 2
  9,                                      !- Hour 3
  0,                                      !- Minute 3
  0.7,                                    !- Value Until Time 3
  12,                                     !- Hour 4
  0,                                      !- Minute 4
  0.9,                                    !- Value Until Time 4
  13,                                     !- Hour 5
  0,                                      !- Minute 5
  0.8,                                    !- Value Until Time 5
  17,                                     !- Hour 6
  0,                                      !- Minute 6
  0.9,                                    !- Value Until Time 6
  18,                                     !- Hour 7
  0,                                      !- Minute 7
  0.3,                                    !- Value Until Time 7
  24,                                     !- Hour 8
  0,                                      !- Minute 8
  0.1;                                    !- Value Until Time 8

OS:Schedule:Day,
  {179151f4-362b-4ce2-963b-a4ff634156d1}, !- Handle
  0700|1700|Warehouse|default|lighting Summer Design Day, !- Name
  {7afbf4b8-1f3d-4beb-9cf6-f99ae0329c62}, !- Schedule Type Limits Name
  ,                                       !- Interpolate to Timestep
  7,                                      !- Hour 1
  0,                                      !- Minute 1
  0.1,                                    !- Value Until Time 1
  18,                                     !- Hour 2
  0,                                      !- Minute 2
  1,                                      !- Value Until Time 2
  24,                                     !- Hour 3
  0,                                      !- Minute 3
  0.1;                                    !- Value Until Time 3

OS:Schedule:Day,
  {904f408f-b22b-4aee-8c15-ff5299f64c2e}, !- Handle
  0700|1700|Warehouse|default|lighting Winter Design Day, !- Name
  {7afbf4b8-1f3d-4beb-9cf6-f99ae0329c62}, !- Schedule Type Limits Name
  ,                                       !- Interpolate to Timestep
  24,                                     !- Hour 1
  0,                                      !- Minute 1
  0.1;                                    !- Value Until Time 1

OS:Schedule:Rule,
  {c8c3e6d4-6557-4d71-9e73-721411462634}, !- Handle
  0700|1700|Warehouse|default|lighting |1/1-12/31|Sat Rule, !- Name
  {5a2a947d-9adf-45e2-bd56-741749d3bfae}, !- Schedule Ruleset Name
  0,                                      !- Rule Order
  {aee725fc-65b2-4843-ab18-ca58ba6c286a}, !- Day Schedule Name
  ,                                       !- Apply Sunday
  ,                                       !- Apply Monday
  ,                                       !- Apply Tuesday
  ,                                       !- Apply Wednesday
  ,                                       !- Apply Thursday
  ,                                       !- Apply Friday
  Yes,                                    !- Apply Saturday
  ,                                       !- Apply Holiday
  DateRange,                              !- Date Specification Type
  1,                                      !- Start Month
  1,                                      !- Start Day
  12,                                     !- End Month
  31;                                     !- End Day

OS:Schedule:Day,
  {aee725fc-65b2-4843-ab18-ca58ba6c286a}, !- Handle
  0700|1700|Warehouse|default|lighting |1/1-12/31|Sat, !- Name
  {7afbf4b8-1f3d-4beb-9cf6-f99ae0329c62}, !- Schedule Type Limits Name
  ,                                       !- Interpolate to Timestep
  9,                                      !- Hour 1
  0,                                      !- Minute 1
  0.1,                                    !- Value Until Time 1
  12,                                     !- Hour 2
  0,                                      !- Minute 2
  0.24,                                   !- Value Until Time 2
  24,                                     !- Hour 3
  0,                                      !- Minute 3
  0.1;                                    !- Value Until Time 3

OS:Schedule:Rule,
  {5ca580bc-18e5-4022-adff-3ab81a11360a}, !- Handle
  0700|1700|Warehouse|default|lighting |1/1-12/31|Sun Rule, !- Name
  {5a2a947d-9adf-45e2-bd56-741749d3bfae}, !- Schedule Ruleset Name
  1,                                      !- Rule Order
  {ca55c553-7e0e-4632-8107-db31e938ac04}, !- Day Schedule Name
  Yes,                                    !- Apply Sunday
  ,                                       !- Apply Monday
  ,                                       !- Apply Tuesday
  ,                                       !- Apply Wednesday
  ,                                       !- Apply Thursday
  ,                                       !- Apply Friday
  ,                                       !- Apply Saturday
  ,                                       !- Apply Holiday
  DateRange,                              !- Date Specification Type
  1,                                      !- Start Month
  1,                                      !- Start Day
  12,                                     !- End Month
  31;                                     !- End Day

OS:Schedule:Day,
  {ca55c553-7e0e-4632-8107-db31e938ac04}, !- Handle
  0700|1700|Warehouse|default|lighting |1/1-12/31|Sun, !- Name
  {7afbf4b8-1f3d-4beb-9cf6-f99ae0329c62}, !- Schedule Type Limits Name
  ,                                       !- Interpolate to Timestep
  24,                                     !- Hour 1
  0,                                      !- Minute 1
  0.1;                                    !- Value Until Time 1

OS:Schedule:Ruleset,
  {34a504da-e531-4435-be5b-fd454f7cd49d}, !- Handle
  0700|1700|Warehouse|default|htg_setpoint, !- Name
  {59b10a35-ce00-4006-9949-36dc659d0c51}, !- Schedule Type Limits Name
  {18bb2e23-b053-4b39-a28c-9b4c60fc674c}, !- Default Day Schedule Name
  {917f2704-f89f-4e8e-adbc-49e48c547aca}, !- Summer Design Day Schedule Name
  {3cdfca77-837b-43b2-8646-87f64f9f2b72}; !- Winter Design Day Schedule Name

OS:ScheduleTypeLimits,
  {59b10a35-ce00-4006-9949-36dc659d0c51}, !- Handle
  Thermostat Heating Setpoint Schedule Type Limits, !- Name
  0,                                      !- Lower Limit Value {BasedOnField A4}
  100,                                    !- Upper Limit Value {BasedOnField A4}
  Continuous,                             !- Numeric Type
  Temperature;                            !- Unit Type

OS:Schedule:Day,
  {18bb2e23-b053-4b39-a28c-9b4c60fc674c}, !- Handle
  0700|1700|Warehouse|default|htg_setpoint |default, !- Name
  {59b10a35-ce00-4006-9949-36dc659d0c51}, !- Schedule Type Limits Name
  ,                                       !- Interpolate to Timestep
  6,                                      !- Hour 1
  0,                                      !- Minute 1
  15.5000000000001,                       !- Value Until Time 1
  17,                                     !- Hour 2
  0,                                      !- Minute 2
  21.0000000000001,                       !- Value Until Time 2
  24,                                     !- Hour 3
  0,                                      !- Minute 3
  15.5000000000001;                       !- Value Until Time 3

OS:Schedule:Day,
  {917f2704-f89f-4e8e-adbc-49e48c547aca}, !- Handle
  0700|1700|Warehouse|default|htg_setpoint Summer Design Day, !- Name
  {59b10a35-ce00-4006-9949-36dc659d0c51}, !- Schedule Type Limits Name
  ,                                       !- Interpolate to Timestep
  6,                                      !- Hour 1
  0,                                      !- Minute 1
  15.5000000000001,                       !- Value Until Time 1
  17,                                     !- Hour 2
  0,                                      !- Minute 2
  21.0000000000001,                       !- Value Until Time 2
  24,                                     !- Hour 3
  0,                                      !- Minute 3
  15.5000000000001;                       !- Value Until Time 3

OS:Schedule:Day,
  {3cdfca77-837b-43b2-8646-87f64f9f2b72}, !- Handle
  0700|1700|Warehouse|default|htg_setpoint Winter Design Day, !- Name
  {59b10a35-ce00-4006-9949-36dc659d0c51}, !- Schedule Type Limits Name
  ,                                       !- Interpolate to Timestep
  24,                                     !- Hour 1
  0,                                      !- Minute 1
  15.5000000000001;                       !- Value Until Time 1

OS:Schedule:Rule,
  {b9275fcc-6ddd-4773-9ddb-292a171e8e0e}, !- Handle
  0700|1700|Warehouse|default|htg_setpoint |1/1-12/31|Sat Rule, !- Name
  {34a504da-e531-4435-be5b-fd454f7cd49d}, !- Schedule Ruleset Name
  0,                                      !- Rule Order
  {286a2bc7-27cc-4466-85a2-c52fedb7570d}, !- Day Schedule Name
  ,                                       !- Apply Sunday
  ,                                       !- Apply Monday
  ,                                       !- Apply Tuesday
  ,                                       !- Apply Wednesday
  ,                                       !- Apply Thursday
  ,                                       !- Apply Friday
  Yes,                                    !- Apply Saturday
  ,                                       !- Apply Holiday
  DateRange,                              !- Date Specification Type
  1,                                      !- Start Month
  1,                                      !- Start Day
  12,                                     !- End Month
  31;                                     !- End Day

OS:Schedule:Day,
  {286a2bc7-27cc-4466-85a2-c52fedb7570d}, !- Handle
  0700|1700|Warehouse|default|htg_setpoint |1/1-12/31|Sat, !- Name
  {59b10a35-ce00-4006-9949-36dc659d0c51}, !- Schedule Type Limits Name
  ,                                       !- Interpolate to Timestep
  7,                                      !- Hour 1
  0,                                      !- Minute 1
  15.5000000000001,                       !- Value Until Time 1
  16,                                     !- Hour 2
  0,                                      !- Minute 2
  21.0000000000001,                       !- Value Until Time 2
  24,                                     !- Hour 3
  0,                                      !- Minute 3
  15.5000000000001;                       !- Value Until Time 3

OS:Schedule:Rule,
  {2b50ec05-7c6b-47d0-832e-633ffcf75717}, !- Handle
  0700|1700|Warehouse|default|htg_setpoint |1/1-12/31|Sun Rule, !- Name
  {34a504da-e531-4435-be5b-fd454f7cd49d}, !- Schedule Ruleset Name
  1,                                      !- Rule Order
  {5c2a34a8-7f89-460e-96c0-bbfe3918041c}, !- Day Schedule Name
  Yes,                                    !- Apply Sunday
  ,                                       !- Apply Monday
  ,                                       !- Apply Tuesday
  ,                                       !- Apply Wednesday
  ,                                       !- Apply Thursday
  ,                                       !- Apply Friday
  ,                                       !- Apply Saturday
  ,                                       !- Apply Holiday
  DateRange,                              !- Date Specification Type
  1,                                      !- Start Month
  1,                                      !- Start Day
  12,                                     !- End Month
  31;                                     !- End Day

OS:Schedule:Day,
  {5c2a34a8-7f89-460e-96c0-bbfe3918041c}, !- Handle
  0700|1700|Warehouse|default|htg_setpoint |1/1-12/31|Sun, !- Name
  {59b10a35-ce00-4006-9949-36dc659d0c51}, !- Schedule Type Limits Name
  ,                                       !- Interpolate to Timestep
  24,                                     !- Hour 1
  0,                                      !- Minute 1
  15.5000000000001;                       !- Value Until Time 1

OS:Schedule:Ruleset,
  {c652df0f-facc-4955-8201-c41c6f1b8233}, !- Handle
  0700|1700|Warehouse|default|rh,         !- Name
  {1d30cf8e-f76f-4902-9a84-08445b91afae}, !- Schedule Type Limits Name
  {9b04edfb-5efd-40a7-8adc-bbfb13ef505c}, !- Default Day Schedule Name
  {477c2e54-53f1-48e2-8b58-2cd9859fec5a}, !- Summer Design Day Schedule Name
  {5ff001f5-b17d-4ae2-a3ee-84378994e2f8}; !- Winter Design Day Schedule Name

OS:ScheduleTypeLimits,
  {1d30cf8e-f76f-4902-9a84-08445b91afae}, !- Handle
  Dimensionless Schedule Type Limits,     !- Name
  ,                                       !- Lower Limit Value {BasedOnField A4}
  ,                                       !- Upper Limit Value {BasedOnField A4}
  Continuous,                             !- Numeric Type
  Dimensionless;                          !- Unit Type

OS:Schedule:Day,
  {9b04edfb-5efd-40a7-8adc-bbfb13ef505c}, !- Handle
  0700|1700|Warehouse|default|rh |default, !- Name
  {1d30cf8e-f76f-4902-9a84-08445b91afae}, !- Schedule Type Limits Name
  ,                                       !- Interpolate to Timestep
  24,                                     !- Hour 1
  0,                                      !- Minute 1
  50;                                     !- Value Until Time 1

OS:Schedule:Day,
  {477c2e54-53f1-48e2-8b58-2cd9859fec5a}, !- Handle
  0700|1700|Warehouse|default|rh Summer Design Day, !- Name
  {1d30cf8e-f76f-4902-9a84-08445b91afae}, !- Schedule Type Limits Name
  ,                                       !- Interpolate to Timestep
  24,                                     !- Hour 1
  0,                                      !- Minute 1
  50;                                     !- Value Until Time 1

OS:Schedule:Day,
  {5ff001f5-b17d-4ae2-a3ee-84378994e2f8}, !- Handle
  0700|1700|Warehouse|default|rh Winter Design Day, !- Name
  {1d30cf8e-f76f-4902-9a84-08445b91afae}, !- Schedule Type Limits Name
  ,                                       !- Interpolate to Timestep
  24,                                     !- Hour 1
  0,                                      !- Minute 1
  50;                                     !- Value Until Time 1

OS:Schedule:Ruleset,
  {c5869192-6c1c-432f-827a-f743a74737f7}, !- Handle
  0700|1700|Warehouse|Bulk|htg_setpoint,  !- Name
  {59b10a35-ce00-4006-9949-36dc659d0c51}, !- Schedule Type Limits Name
  {8c8e0116-7c7f-4cae-aad1-173c606d97b2}, !- Default Day Schedule Name
  {2726bdfb-cc64-4b51-b046-bb05307b9a65}, !- Summer Design Day Schedule Name
  {b2300873-964a-42cc-9f31-4b021382ae65}; !- Winter Design Day Schedule Name

OS:Schedule:Day,
  {8c8e0116-7c7f-4cae-aad1-173c606d97b2}, !- Handle
  0700|1700|Warehouse|Bulk|htg_setpoint |default, !- Name
  {59b10a35-ce00-4006-9949-36dc659d0c51}, !- Schedule Type Limits Name
  ,                                       !- Interpolate to Timestep
  24,                                     !- Hour 1
  0,                                      !- Minute 1
  7.20000000000005;                       !- Value Until Time 1

OS:Schedule:Day,
  {2726bdfb-cc64-4b51-b046-bb05307b9a65}, !- Handle
  0700|1700|Warehouse|Bulk|htg_setpoint Summer Design Day, !- Name
  {59b10a35-ce00-4006-9949-36dc659d0c51}, !- Schedule Type Limits Name
  ,                                       !- Interpolate to Timestep