
OS:Version,
  {41c226a7-7804-4d6c-9c05-a0a78c5d1b64}, !- Handle
  1.5.5;                                  !- Version Identifier

OS:ClimateZones,
  {135edfab-17e7-40db-a436-27d385a8cd6d}, !- Handle
  ,                                       !- Active Institution
  ,                                       !- Active Year
  ASHRAE,                                 !- Climate Zone Institution Name 1
  ANSI/ASHRAE Standard 169,               !- Climate Zone Document Name 1
  2006,                                   !- Climate Zone Document Year 1
  ,                                       !- Climate Zone Value 1
  CEC,                                    !- Climate Zone Institution Name 2
  California Climate Zone Descriptions,   !- Climate Zone Document Name 2
  1995,                                   !- Climate Zone Document Year 2
  ;                                       !- Climate Zone Value 2

OS:YearDescription,
  {513d8dda-86cb-442a-b01c-1f7f0e0ac70e}; !- Handle

OS:RadianceParameters,
  {270a96f1-3c86-4b75-a667-cdf22790e2c8}, !- Handle
  1,                                      !- Accumulated Rays per Record
  0,                                      !- Direct Threshold
  1,                                      !- Direct Certainty
  1,                                      !- Direct Jitter
  1,                                      !- Direct Pretest
  6,                                      !- Ambient Bounces VMX
  2,                                      !- Ambient Bounces DMX
  4050,                                   !- Ambient Divisions VMX
  512,                                    !- Ambient Divisions DMX
  256,                                    !- Ambient Supersamples
  0.001,                                  !- Limit Weight VMX
  0.001,                                  !- Limit Weight DMX
  500,                                    !- Klems Sampling Density
  146;                                    !- Sky Discretization Resolution

OS:SimulationControl,
  {2c487a4c-bac9-4ac5-b669-1e49d9da7c2b}, !- Handle
  ,                                       !- Do Zone Sizing Calculation
  ,                                       !- Do System Sizing Calculation
  ,                                       !- Do Plant Sizing Calculation
  No,                                     !- Run Simulation for Sizing Periods
  ,                                       !- Run Simulation for Weather File Run Periods
  0.04,                                   !- Loads Convergence Tolerance Value
  ,                                       !- Temperature Convergence Tolerance Value {deltaC}
  ,                                       !- Solar Distribution
  ,                                       !- Maximum Number of Warmup Days
  2;                                      !- Minimum Number of Warmup Days

OS:Sizing:Parameters,
  {dde5af6f-7923-4600-a28a-7556673a0266}, !- Handle
  1.25,                                   !- Heating Sizing Factor
  1.15;                                   !- Cooling Sizing Factor

OS:ProgramControl,
  {05027a99-f2b3-4aeb-afc6-1425fbb4371d}; !- Handle

OS:Timestep,
  {4ebc9f1e-4707-402e-9844-67eb1ffbd522}, !- Handle
  2;                                      !- Number of Timesteps per Hour

OS:OutputControl:ReportingTolerances,
  {65797aa2-06a9-45fe-b69d-bc6e060399d3}; !- Handle

OS:ConvergenceLimits,
  {9fc11aba-8822-4f3d-970c-46391ba4040d}; !- Handle

OS:ShadowCalculation,
  {ca758bea-4416-4626-9bba-3d8795c79bd6}, !- Handle
  7,                                      !- Calculation Frequency
  15000;                                  !- Maximum Figures in Shadow Overlap Calculations

OS:SurfaceConvectionAlgorithm:Inside,
  {aaabfc36-718a-4ab0-b622-f186ebb45230}, !- Handle
  TARP;                                   !- Algorithm

OS:SurfaceConvectionAlgorithm:Outside,
  {9a0a9f6f-4bbd-4b12-a121-9492a1fcd7d6}, !- Handle
  DOE-2;                                  !- Algorithm

OS:HeatBalanceAlgorithm,
  {9d93e563-e1e0-46d7-9e39-d1c8aceb7212}, !- Handle
  ConductionTransferFunction,             !- Algorithm
  200;                                    !- Surface Temperature Upper Limit {F}

OS:ZoneAirHeatBalanceAlgorithm,
  {8520d93e-310f-4696-9bcd-36228bfdd743}, !- Handle
  AnalyticalSolution;                     !- Algorithm

OS:ZoneAirContaminantBalance,
  {eb5fc3ae-fb22-4160-8fcb-3e3b22b000d3}; !- Handle

OS:ZoneCapacitanceMultiplier:ResearchSpecial,
  {4020ce4f-5a7a-4849-8028-8305d7b751b1}, !- Handle
  ,                                       !- Temperature Capacity Multiplier
  ,                                       !- Humidity Capacity Multiplier
  ;                                       !- Carbon Dioxide Capacity Multiplier

OS:RunPeriod,
  {28df894d-6af9-4fb8-8f56-df1753344aa3}, !- Handle
  Run Period 1,                           !- Name
  1,                                      !- Begin Month
  1,                                      !- Begin Day of Month
  12,                                     !- End Month
  31,                                     !- End Day of Month
  ,                                       !- Use Weather File Holidays and Special Days
  ,                                       !- Use Weather File Daylight Saving Period
  ,                                       !- Apply Weekend Holiday Rule
  ,                                       !- Use Weather File Rain Indicators
  ,                                       !- Use Weather File Snow Indicators
  ;                                       !- Number of Times Runperiod to be Repeated

OS:Building,
  {bf305633-c5a1-4881-9edf-ca5e1a8e1274}, !- Handle
  Building 1,                             !- Name
  ,                                       !- Building Sector Type
  ,                                       !- North Axis {deg}
  ,                                       !- Nominal Floor to Floor Height {m}
  ,                                       !- Space Type Name
  ,                                       !- Default Construction Set Name
  {fcb3ef2b-2628-41a3-a527-7b3c91e0405f}, !- Default Schedule Set Name
  ,                                       !- Standards Number of Stories
  ,                                       !- Standards Number of Above Ground Stories
  Warehouse;                              !- Standards Building Type

OS:LifeCycleCost:Parameters,
  {231cf8a0-f0e7-4251-a99f-11f0d464e661}, !- Handle
  FEMP,                                   !- Analysis Type
  ,                                       !- Discounting Convention
  ,                                       !- Inflation Approach
  ,                                       !- Real Discount Rate
  ,                                       !- Nominal Discount Rate
  ,                                       !- Inflation
  ,                                       !- Base Date Month
  ,                                       !- Base Date Year
  ,                                       !- Service Date Month
  ,                                       !- Service Date Year
  ,                                       !- Length of Study Period in Years
  ,                                       !- Tax Rate
  ,                                       !- Depreciation Method
  Yes;                                    !- Use NIST Fuel Escalation Rates

OS:Facility,
  {3ba8e45b-b833-44eb-a723-ea6c3946dc96}; !- Handle

OS:SpaceType,
  {5a5d523b-eae3-4ef5-ab29-4215c8e0145c}, !- Handle
  Warehouse|BlendA|DOE Ref Pre-1980|ASHRAE 169-2006-5A, !- Name
  {45bb2abc-2395-4981-a5ac-3224fa74467a}, !- Default Construction Set Name
  ,                                       !- Default Schedule Set Name
  {c621c35e-cb0a-492e-88e9-b15e4585015d}, !- Group Rendering Name
  {a1c282c3-2adc-47d7-b6c2-9aeb4b5c5806}, !- Design Specification Outdoor Air Object Name
  Warehouse,                              !- Standards Building Type
  BlendA;                                 !- Standards Space Type

OS:Rendering:Color,
  {c621c35e-cb0a-492e-88e9-b15e4585015d}, !- Handle
  Rendering Color 1,                      !- Name
  41,                                     !- Rendering Red Value
  31,                                     !- Rendering Green Value
  169;                                    !- Rendering Blue Value

OS:SpaceType,
  {efe843d0-40fd-4607-bc55-334f91a903fa}, !- Handle
  Warehouse|Office|DOE Ref Pre-1980|ASHRAE 169-2006-5A, !- Name
  {45bb2abc-2395-4981-a5ac-3224fa74467a}, !- Default Construction Set Name
  {b68d6838-119a-4c62-8a85-e5e0dc09c45a}, !- Default Schedule Set Name
  {457879d9-137c-4901-a876-02621c26dd87}, !- Group Rendering Name
  {5a2bfc66-b47d-41cd-af95-c26baea71de6}, !- Design Specification Outdoor Air Object Name
  Warehouse,                              !- Standards Building Type
  Office;                                 !- Standards Space Type

OS:Rendering:Color,
  {457879d9-137c-4901-a876-02621c26dd87}, !- Handle
  Rendering Color 2,                      !- Name
  120,                                    !- Rendering Red Value
  230,                                    !- Rendering Green Value
  199;                                    !- Rendering Blue Value

OS:Schedule:Ruleset,
  {d35f467b-881e-4fd9-9408-082d3bbfb1c3}, !- Handle
  0700|1700|Warehouse|default|hoo,        !- Name
  {a80c3467-6d4f-4ffd-9498-c80f0bd87ed5}, !- Schedule Type Limits Name
  {012c9b80-8f4d-4455-838a-bdf6e9042d16}, !- Default Day Schedule Name
  {99511e61-e692-4581-8a8d-a6262922ba13}, !- Summer Design Day Schedule Name
  {4cb32f5e-a374-42d8-93cf-c96e1b7e1c5e}; !- Winter Design Day Schedule Name

OS:Schedule:Day,
  {012c9b80-8f4d-4455-838a-bdf6e9042d16}, !- Handle
  0700|1700|Warehouse|default|hoo Schedule Week Day, !- Name
  {a80c3467-6d4f-4ffd-9498-c80f0bd87ed5}, !- Schedule Type Limits Name
  ,                                       !- Interpolate to Timestep
  7,                                      !- Hour 1
  0,                                      !- Minute 1
  0,                                      !- Value Until Time 1
  17,                                     !- Hour 2
  0,                                      !- Minute 2
  1,                                      !- Value Until Time 2
  24,                                     !- Hour 3
  0,                                      !- Minute 3
  0;                                      !- Value Until Time 3

OS:Schedule:Day,
  {f67aaefa-3bb2-49f9-a174-9823bf10284c}, !- Handle
  Schedule Day 2,                         !- Name
  ,                                       !- Schedule Type Limits Name
  ,                                       !- Interpolate to Timestep
  24,                                     !- Hour 1
  0,                                      !- Minute 1
  0;                                      !- Value Until Time 1

OS:Schedule:Day,
  {4cb32f5e-a374-42d8-93cf-c96e1b7e1c5e}, !- Handle
  0700|1700|Warehouse|default|hoo Winter Design Day, !- Name
  {a80c3467-6d4f-4ffd-9498-c80f0bd87ed5}, !- Schedule Type Limits Name
  ,                                       !- Interpolate to Timestep
  24,                                     !- Hour 1
  0,                                      !- Minute 1
  0;                                      !- Value Until Time 1

OS:Schedule:Day,
  {2c69fb9a-66ac-4c2e-985e-5c93b39ed0eb}, !- Handle
  Schedule Day 3,                         !- Name
  ,                                       !- Schedule Type Limits Name
  ,                                       !- Interpolate to Timestep
  24,                                     !- Hour 1
  0,                                      !- Minute 1
  0;                                      !- Value Until Time 1

OS:Schedule:Day,
  {99511e61-e692-4581-8a8d-a6262922ba13}, !- Handle
  0700|1700|Warehouse|default|hoo Summer Design Day, !- Name
  {a80c3467-6d4f-4ffd-9498-c80f0bd87ed5}, !- Schedule Type Limits Name
  ,                                       !- Interpolate to Timestep
  24,                                     !- Hour 1
  0,                                      !- Minute 1
  1;                                      !- Value Until Time 1

OS:DefaultScheduleSet,
  {fcb3ef2b-2628-41a3-a527-7b3c91e0405f}, !- Handle
  Building Hours of Operation,            !- Name
  {d35f467b-881e-4fd9-9408-082d3bbfb1c3}, !- Hours of Operation Schedule Name
  ,                                       !- Number of People Schedule Name
  ,                                       !- People Activity Level Schedule Name
  ,                                       !- Lighting Schedule Name
  ,                                       !- Electric Equipment Schedule Name
  ,                                       !- Gas Equipment Schedule Name
  ,                                       !- Hot Water Equipment Schedule Name
  ,                                       !- Infiltration Schedule Name
  ,                                       !- Steam Equipment Schedule Name
  ;                                       !- Other Equipment Schedule Name

OS:ScheduleTypeLimits,
  {a80c3467-6d4f-4ffd-9498-c80f0bd87ed5}, !- Handle
  OnOff,                                  !- Name
  0,                                      !- Lower Limit Value {BasedOnField A4}
  1,                                      !- Upper Limit Value {BasedOnField A4}
  Discrete,                               !- Numeric Type
  Availability;                           !- Unit Type

OS:Schedule:Ruleset,
  {2120a56f-3ae6-46cb-a97b-a150dde69423}, !- Handle
  0700|1700|Warehouse|default|lighting,   !- Name
  {f6d9891f-f557-4f6f-8736-e231ed6ef87c}, !- Schedule Type Limits Name
  {b3bb4447-a919-454c-a804-30c84d74c49a}, !- Default Day Schedule Name
  {05e539d5-e3a7-4b72-96df-54d9a217e1dd}, !- Summer Design Day Schedule Name
  {56207d45-5d86-4573-86ae-ccecd7413409}; !- Winter Design Day Schedule Name

OS:ScheduleTypeLimits,
  {f6d9891f-f557-4f6f-8736-e231ed6ef87c}, !- Handle
  Lights Schedule Type Limits,            !- Name
  0,                                      !- Lower Limit Value {BasedOnField A4}
  1,                                      !- Upper Limit Value {BasedOnField A4}
  Continuous,                             !- Numeric Type
  Dimensionless;                          !- Unit Type

OS:Schedule:Day,
  {b3bb4447-a919-454c-a804-30c84d74c49a}, !- Handle
  0700|1700|Warehouse|default|lighting |default, !- Name
  {f6d9891f-f557-4f6f-8736-e231ed6ef87c}, !- Schedule Type Limits Name
  ,                                       !- Interpolate to Timestep
  7,                                      !- Hour 1
  0,                                      !- Minute 1
  0.1,                                    !- Value Until Time 1
  8,                                      !- Hour 2
  0,                                      !- Minute 2
  0.4,                                    !- Value Until Time 2
  9,                                      !- Hour 3
  0,                                      !- Minute 3
  0.7,                                    !- Value Until Time 3
  12,                                     !- Hour 4
  0,                                      !- Minute 4
  0.9,                                    !- Value Until Time 4
  13,                                     !- Hour 5
  0,                                      !- Minute 5
  0.8,                                    !- Value Until Time 5
  17,                                     !- Hour 6
  0,                                      !- Minute 6
  0.9,                                    !- Value Until Time 6
  18,                                     !- Hour 7
  0,                                      !- Minute 7
  0.3,                                    !- Value Until Time 7
  24,                                     !- Hour 8
  0,                                      !- Minute 8
  0.1;                                    !- Value Until Time 8

OS:Schedule:Day,
  {05e539d5-e3a7-4b72-96df-54d9a217e1dd}, !- Handle
  0700|1700|Warehouse|default|lighting Summer Design Day, !- Name
  {f6d9891f-f557-4f6f-8736-e231ed6ef87c}, !- Schedule Type Limits Name
  ,                                       !- Interpolate to Timestep
  7,                                      !- Hour 1
  0,                                      !- Minute 1
  0.1,                                    !- Value Until Time 1
  18,                                     !- Hour 2
  0,                                      !- Minute 2
  1,                                      !- Value Until Time 2
  24,                                     !- Hour 3
  0,                                      !- Minute 3
  0.1;                                    !- Value Until Time 3

OS:Schedule:Day,
  {56207d45-5d86-4573-86ae-ccecd7413409}, !- Handle
  0700|1700|Warehouse|default|lighting Winter Design Day, !- Name
  {f6d9891f-f557-4f6f-8736-e231ed6ef87c}, !- Schedule Type Limits Name
  ,                                       !- Interpolate to Timestep
  24,                                     !- Hour 1
  0,                                      !- Minute 1
  0.1;                                    !- Value Until Time 1

OS:Schedule:Rule,
  {ff87f75f-1ced-4c18-b567-814210ecda56}, !- Handle
  0700|1700|Warehouse|default|lighting |1/1-12/31|Sat Rule, !- Name
  {2120a56f-3ae6-46cb-a97b-a150dde69423}, !- Schedule Ruleset Name
  0,                                      !- Rule Order
  {9c339107-b9db-4f19-9a42-f2abd1a51118}, !- Day Schedule Name
  ,                                       !- Apply Sunday
  ,                                       !- Apply Monday
  ,                                       !- Apply Tuesday
  ,                                       !- Apply Wednesday
  ,                                       !- Apply Thursday
  ,                                       !- Apply Friday
  Yes,                                    !- Apply Saturday
  ,                                       !- Apply Holiday
  DateRange,                              !- Date Specification Type
  1,                                      !- Start Month
  1,                                      !- Start Day
  12,                                     !- End Month
  31;                                     !- End Day

OS:Schedule:Day,
  {9c339107-b9db-4f19-9a42-f2abd1a51118}, !- Handle
  0700|1700|Warehouse|default|lighting |1/1-12/31|Sat, !- Name
  {f6d9891f-f557-4f6f-8736-e231ed6ef87c}, !- Schedule Type Limits Name
  ,                                       !- Interpolate to Timestep
  9,                                      !- Hour 1
  0,                                      !- Minute 1
  0.1,                                    !- Value Until Time 1
  12,                                     !- Hour 2
  0,                                      !- Minute 2
  0.24,                                   !- Value Until Time 2
  24,                                     !- Hour 3
  0,                                      !- Minute 3
  0.1;                                    !- Value Until Time 3

OS:Schedule:Rule,
  {58b07b49-229d-43e5-9871-f71bccd79d28}, !- Handle
  0700|1700|Warehouse|default|lighting |1/1-12/31|Sun Rule, !- Name
  {2120a56f-3ae6-46cb-a97b-a150dde69423}, !- Schedule Ruleset Name
  1,                                      !- Rule Order
  {207c6228-58aa-49b7-b3bd-e31d0044d2b8}, !- Day Schedule Name
  Yes,                                    !- Apply Sunday
  ,                                       !- Apply Monday
  ,                                       !- Apply Tuesday
  ,                                       !- Apply Wednesday
  ,                                       !- Apply Thursday
  ,                                       !- Apply Friday
  ,                                       !- Apply Saturday
  ,                                       !- Apply Holiday
  DateRange,                              !- Date Specification Type
  1,                                      !- Start Month
  1,                                      !- Start Day
  12,                                     !- End Month
  31;                                     !- End Day

OS:Schedule:Day,
  {207c6228-58aa-49b7-b3bd-e31d0044d2b8}, !- Handle
  0700|1700|Warehouse|default|lighting |1/1-12/31|Sun, !- Name
  {f6d9891f-f557-4f6f-8736-e231ed6ef87c}, !- Schedule Type Limits Name
  ,                                       !- Interpolate to Timestep
  24,                                     !- Hour 1
  0,                                      !- Minute 1
  0.1;                                    !- Value Until Time 1

OS:Schedule:Ruleset,
  {07c820c9-6910-40c4-8f69-3f6a602d95a4}, !- Handle
  0700|1700|Warehouse|default|htg_setpoint, !- Name
  {b4bacbf1-4180-40ec-ad6f-29c2f9addb2b}, !- Schedule Type Limits Name
  {572b1b9c-2dc3-414f-ae65-3277861ca422}, !- Default Day Schedule Name
  {ad9ed61a-3191-49c8-8762-946f5d7e0da8}, !- Summer Design Day Schedule Name
  {da5a7ae7-bc0e-4845-b654-d740c0444b17}; !- Winter Design Day Schedule Name

OS:ScheduleTypeLimits,
  {b4bacbf1-4180-40ec-ad6f-29c2f9addb2b}, !- Handle
  Thermostat Heating Setpoint Schedule Type Limits, !- Name
  0,                                      !- Lower Limit Value {BasedOnField A4}
  100,                                    !- Upper Limit Value {BasedOnField A4}
  Continuous,                             !- Numeric Type
  Temperature;                            !- Unit Type

OS:Schedule:Day,
  {572b1b9c-2dc3-414f-ae65-3277861ca422}, !- Handle
  0700|1700|Warehouse|default|htg_setpoint |default, !- Name
  {b4bacbf1-4180-40ec-ad6f-29c2f9addb2b}, !- Schedule Type Limits Name
  ,                                       !- Interpolate to Timestep
  6,                                      !- Hour 1
  0,                                      !- Minute 1
  15.5000000000001,                       !- Value Until Time 1
  17,                                     !- Hour 2
  0,                                      !- Minute 2
  21.0000000000001,                       !- Value Until Time 2
  24,                                     !- Hour 3
  0,                                      !- Minute 3
  15.5000000000001;                       !- Value Until Time 3

OS:Schedule:Day,
  {ad9ed61a-3191-49c8-8762-946f5d7e0da8}, !- Handle
  0700|1700|Warehouse|default|htg_setpoint Summer Design Day, !- Name
  {b4bacbf1-4180-40ec-ad6f-29c2f9addb2b}, !- Schedule Type Limits Name
  ,                                       !- Interpolate to Timestep
  6,                                      !- Hour 1
  0,                                      !- Minute 1
  15.5000000000001,                       !- Value Until Time 1
  17,                                     !- Hour 2
  0,                                      !- Minute 2
  21.0000000000001,                       !- Value Until Time 2
  24,                                     !- Hour 3
  0,                                      !- Minute 3
  15.5000000000001;                       !- Value Until Time 3

OS:Schedule:Day,
  {da5a7ae7-bc0e-4845-b654-d740c0444b17}, !- Handle
  0700|1700|Warehouse|default|htg_setpoint Winter Design Day, !- Name
  {b4bacbf1-4180-40ec-ad6f-29c2f9addb2b}, !- Schedule Type Limits Name
  ,                                       !- Interpolate to Timestep
  24,                                     !- Hour 1
  0,                                      !- Minute 1
  15.5000000000001;                       !- Value Until Time 1

OS:Schedule:Rule,
  {0fa34a75-dee6-4f0f-b3a4-a8158c6e1347}, !- Handle
  0700|1700|Warehouse|default|htg_setpoint |1/1-12/31|Sat Rule, !- Name
  {07c820c9-6910-40c4-8f69-3f6a602d95a4}, !- Schedule Ruleset Name
  0,                                      !- Rule Order
  {ca9c058c-f17e-457a-a47e-a053d41c9612}, !- Day Schedule Name
  ,                                       !- Apply Sunday
  ,                                       !- Apply Monday
  ,                                       !- Apply Tuesday
  ,                                       !- Apply Wednesday
  ,                                       !- Apply Thursday
  ,                                       !- Apply Friday
  Yes,                                    !- Apply Saturday
  ,                                       !- Apply Holiday
  DateRange,                              !- Date Specification Type
  1,                                      !- Start Month
  1,                                      !- Start Day
  12,                                     !- End Month
  31;                                     !- End Day

OS:Schedule:Day,
  {ca9c058c-f17e-457a-a47e-a053d41c9612}, !- Handle
  0700|1700|Warehouse|default|htg_setpoint |1/1-12/31|Sat, !- Name
  {b4bacbf1-4180-40ec-ad6f-29c2f9addb2b}, !- Schedule Type Limits Name
  ,                                       !- Interpolate to Timestep
  7,                                      !- Hour 1
  0,                                      !- Minute 1
  15.5000000000001,                       !- Value Until Time 1
  16,                                     !- Hour 2
  0,                                      !- Minute 2
  21.0000000000001,                       !- Value Until Time 2
  24,                                     !- Hour 3
  0,                                      !- Minute 3
  15.5000000000001;                       !- Value Until Time 3

OS:Schedule:Rule,
  {5216eb1e-fb5d-4967-88ad-a7b569a71899}, !- Handle
  0700|1700|Warehouse|default|htg_setpoint |1/1-12/31|Sun Rule, !- Name
  {07c820c9-6910-40c4-8f69-3f6a602d95a4}, !- Schedule Ruleset Name
  1,                                      !- Rule Order
  {7eab4e1e-8dfa-4e9d-b25b-d736d4a40289}, !- Day Schedule Name
  Yes,                                    !- Apply Sunday
  ,                                       !- Apply Monday
  ,                                       !- Apply Tuesday
  ,                                       !- Apply Wednesday
  ,                                       !- Apply Thursday
  ,                                       !- Apply Friday
  ,                                       !- Apply Saturday
  ,                                       !- Apply Holiday
  DateRange,                              !- Date Specification Type
  1,                                      !- Start Month
  1,                                      !- Start Day
  12,                                     !- End Month
  31;                                     !- End Day

OS:Schedule:Day,
  {7eab4e1e-8dfa-4e9d-b25b-d736d4a40289}, !- Handle
  0700|1700|Warehouse|default|htg_setpoint |1/1-12/31|Sun, !- Name
  {b4bacbf1-4180-40ec-ad6f-29c2f9addb2b}, !- Schedule Type Limits Name
  ,                                       !- Interpolate to Timestep
  24,                                     !- Hour 1
  0,                                      !- Minute 1
  15.5000000000001;                       !- Value Until Time 1

OS:Schedule:Ruleset,
  {7a9caeb0-7c90-4f23-bbce-a0e2fcdecd23}, !- Handle
  0700|1700|Warehouse|default|rh,         !- Name
  {ee7b5d23-40b3-4355-a9d8-18824703cba1}, !- Schedule Type Limits Name
  {1ded6d12-5edf-48ea-89d9-53d9c9c6cc22}, !- Default Day Schedule Name
  {b35b4bf5-b2b9-4b19-9446-c614c8c7c3f5}, !- Summer Design Day Schedule Name
  {59a9b8bd-7f43-4658-ba31-abf107d9bbcd}; !- Winter Design Day Schedule Name

OS:ScheduleTypeLimits,
  {ee7b5d23-40b3-4355-a9d8-18824703cba1}, !- Handle
  Dimensionless Schedule Type Limits,     !- Name
  ,                                       !- Lower Limit Value {BasedOnField A4}
  ,                                       !- Upper Limit Value {BasedOnField A4}
  Continuous,                             !- Numeric Type
  Dimensionless;                          !- Unit Type

OS:Schedule:Day,
  {1ded6d12-5edf-48ea-89d9-53d9c9c6cc22}, !- Handle
  0700|1700|Warehouse|default|rh |default, !- Name
  {ee7b5d23-40b3-4355-a9d8-18824703cba1}, !- Schedule Type Limits Name
  ,                                       !- Interpolate to Timestep
  24,                                     !- Hour 1
  0,                                      !- Minute 1
  50;                                     !- Value Until Time 1

OS:Schedule:Day,
  {b35b4bf5-b2b9-4b19-9446-c614c8c7c3f5}, !- Handle
  0700|1700|Warehouse|default|rh Summer Design Day, !- Name
  {ee7b5d23-40b3-4355-a9d8-18824703cba1}, !- Schedule Type Limits Name
  ,                                       !- Interpolate to Timestep
  24,                                     !- Hour 1
  0,                                      !- Minute 1
  50;                                     !- Value Until Time 1

OS:Schedule:Day,
  {59a9b8bd-7f43-4658-ba31-abf107d9bbcd}, !- Handle
  0700|1700|Warehouse|default|rh Winter Design Day, !- Name
  {ee7b5d23-40b3-4355-a9d8-18824703cba1}, !- Schedule Type Limits Name
  ,                                       !- Interpolate to Timestep
  24,                                     !- Hour 1
  0,                                      !- Minute 1
  50;                                     !- Value Until Time 1

OS:Schedule:Ruleset,
  {0a0fbc64-bb85-4a82-ac1a-57694399584c}, !- Handle
  0700|1700|Warehouse|Bulk|htg_setpoint,  !- Name
  {b4bacbf1-4180-40ec-ad6f-29c2f9addb2b}, !- Schedule Type Limits Name
  {f0187ee7-3030-4c3f-9bba-39a2f9e2d707}, !- Default Day Schedule Name
  {561e6ab0-ed41-4366-9904-0d061c48365a}, !- Summer Design Day Schedule Name
  {ce3451dd-7de6-4b79-a23c-4ab1d7699d44}; !- Winter Design Day Schedule Name

OS:Schedule:Day,
  {f0187ee7-3030-4c3f-9bba-39a2f9e2d707}, !- Handle
  0700|1700|Warehouse|Bulk|htg_setpoint |default, !- Name
  {b4bacbf1-4180-40ec-ad6f-29c2f9addb2b}, !- Schedule Type Limits Name
  ,                                       !- Interpolate to Timestep
  24,                                     !- Hour 1
  0,                                      !- Minute 1
  7.20000000000005;                       !- Value Until Time 1

OS:Schedule:Day,
  {561e6ab0-ed41-4366-9904-0d061c48365a}, !- Handle
  0700|1700|Warehouse|Bulk|htg_setpoint Summer Design Day, !- Name
  {b4bacbf1-4180-40ec-ad6f-29c2f9addb2b}, !- Schedule Type Limits Name
  ,                                       !- Interpolate to Timestep