
OS:Version,
  {6f89e4b3-6803-4875-9967-86a8398c19b8}, !- Handle
  1.5.5;                                  !- Version Identifier

OS:ClimateZones,
  {135edfab-17e7-40db-a436-27d385a8cd6d}, !- Handle
  ,                                       !- Active Institution
  ,                                       !- Active Year
  ASHRAE,                                 !- Climate Zone Institution Name 1
  ANSI/ASHRAE Standard 169,               !- Climate Zone Document Name 1
  2006,                                   !- Climate Zone Document Year 1
  ,                                       !- Climate Zone Value 1
  CEC,                                    !- Climate Zone Institution Name 2
  California Climate Zone Descriptions,   !- Climate Zone Document Name 2
  1995,                                   !- Climate Zone Document Year 2
  ;                                       !- Climate Zone Value 2

OS:YearDescription,
  {513d8dda-86cb-442a-b01c-1f7f0e0ac70e}; !- Handle

OS:RadianceParameters,
  {270a96f1-3c86-4b75-a667-cdf22790e2c8}, !- Handle
  1,                                      !- Accumulated Rays per Record
  0,                                      !- Direct Threshold
  1,                                      !- Direct Certainty
  1,                                      !- Direct Jitter
  1,                                      !- Direct Pretest
  6,                                      !- Ambient Bounces VMX
  2,                                      !- Ambient Bounces DMX
  4050,                                   !- Ambient Divisions VMX
  512,                                    !- Ambient Divisions DMX
  256,                                    !- Ambient Supersamples
  0.001,                                  !- Limit Weight VMX
  0.001,                                  !- Limit Weight DMX
  500,                                    !- Klems Sampling Density
  146;                                    !- Sky Discretization Resolution

OS:SimulationControl,
  {2c487a4c-bac9-4ac5-b669-1e49d9da7c2b}, !- Handle
  ,                                       !- Do Zone Sizing Calculation
  ,                                       !- Do System Sizing Calculation
  ,                                       !- Do Plant Sizing Calculation
  No,                                     !- Run Simulation for Sizing Periods
  ,                                       !- Run Simulation for Weather File Run Periods
  0.04,                                   !- Loads Convergence Tolerance Value
  ,                                       !- Temperature Convergence Tolerance Value {deltaC}
  ,                                       !- Solar Distribution
  ,                                       !- Maximum Number of Warmup Days
  2;                                      !- Minimum Number of Warmup Days

OS:Sizing:Parameters,
  {dde5af6f-7923-4600-a28a-7556673a0266}, !- Handle
  1.25,                                   !- Heating Sizing Factor
  1.15;                                   !- Cooling Sizing Factor

OS:ProgramControl,
  {05027a99-f2b3-4aeb-afc6-1425fbb4371d}; !- Handle

OS:Timestep,
  {4ebc9f1e-4707-402e-9844-67eb1ffbd522}, !- Handle
  2;                                      !- Number of Timesteps per Hour

OS:OutputControl:ReportingTolerances,
  {65797aa2-06a9-45fe-b69d-bc6e060399d3}; !- Handle

OS:ConvergenceLimits,
  {9fc11aba-8822-4f3d-970c-46391ba4040d}; !- Handle

OS:ShadowCalculation,
  {ca758bea-4416-4626-9bba-3d8795c79bd6}, !- Handle
  7,                                      !- Calculation Frequency
  15000;                                  !- Maximum Figures in Shadow Overlap Calculations

OS:SurfaceConvectionAlgorithm:Inside,
  {aaabfc36-718a-4ab0-b622-f186ebb45230}, !- Handle
  TARP;                                   !- Algorithm

OS:SurfaceConvectionAlgorithm:Outside,
  {9a0a9f6f-4bbd-4b12-a121-9492a1fcd7d6}, !- Handle
  DOE-2;                                  !- Algorithm

OS:HeatBalanceAlgorithm,
  {9d93e563-e1e0-46d7-9e39-d1c8aceb7212}, !- Handle
  ConductionTransferFunction,             !- Algorithm
  200;                                    !- Surface Temperature Upper Limit {F}

OS:ZoneAirHeatBalanceAlgorithm,
  {8520d93e-310f-4696-9bcd-36228bfdd743}, !- Handle
  AnalyticalSolution;                     !- Algorithm

OS:ZoneAirContaminantBalance,
  {eb5fc3ae-fb22-4160-8fcb-3e3b22b000d3}; !- Handle

OS:ZoneCapacitanceMultiplier:ResearchSpecial,
  {4020ce4f-5a7a-4849-8028-8305d7b751b1}, !- Handle
  ,                                       !- Temperature Capacity Multiplier
  ,                                       !- Humidity Capacity Multiplier
  ;                                       !- Carbon Dioxide Capacity Multiplier

OS:RunPeriod,
  {28df894d-6af9-4fb8-8f56-df1753344aa3}, !- Handle
  Run Period 1,                           !- Name
  1,                                      !- Begin Month
  1,                                      !- Begin Day of Month
  12,                                     !- End Month
  31,                                     !- End Day of Month
  ,                                       !- Use Weather File Holidays and Special Days
  ,                                       !- Use Weather File Daylight Saving Period
  ,                                       !- Apply Weekend Holiday Rule
  ,                                       !- Use Weather File Rain Indicators
  ,                                       !- Use Weather File Snow Indicators
  ;                                       !- Number of Times Runperiod to be Repeated

OS:Building,
  {bf305633-c5a1-4881-9edf-ca5e1a8e1274}, !- Handle
  Building 1,                             !- Name
  ,                                       !- Building Sector Type
  ,                                       !- North Axis {deg}
  ,                                       !- Nominal Floor to Floor Height {m}
  ,                                       !- Space Type Name
  ,                                       !- Default Construction Set Name
  {08ca7a47-3d96-4c16-a98a-0024b2820ffb}, !- Default Schedule Set Name
  ,                                       !- Standards Number of Stories
  ,                                       !- Standards Number of Above Ground Stories
  Warehouse;                              !- Standards Building Type

OS:LifeCycleCost:Parameters,
  {231cf8a0-f0e7-4251-a99f-11f0d464e661}, !- Handle
  FEMP,                                   !- Analysis Type
  ,                                       !- Discounting Convention
  ,                                       !- Inflation Approach
  ,                                       !- Real Discount Rate
  ,                                       !- Nominal Discount Rate
  ,                                       !- Inflation
  ,                                       !- Base Date Month
  ,                                       !- Base Date Year
  ,                                       !- Service Date Month
  ,                                       !- Service Date Year
  ,                                       !- Length of Study Period in Years
  ,                                       !- Tax Rate
  ,                                       !- Depreciation Method
  Yes;                                    !- Use NIST Fuel Escalation Rates

OS:Facility,
  {3ba8e45b-b833-44eb-a723-ea6c3946dc96}; !- Handle

OS:SpaceType,
  {d5a84cbe-07ee-4c58-be0f-9ab881a290fc}, !- Handle
  Warehouse|BlendA|DOE Ref 2004|ASHRAE 169-2006-5A, !- Name
  {8def1984-a650-4ada-b008-ba1e6df52e5f}, !- Default Construction Set Name
  ,                                       !- Default Schedule Set Name
  {9529c320-a2aa-4da8-8a5f-74cb44d42880}, !- Group Rendering Name
  {5060e97b-d968-4167-b947-9eb769f5159c}, !- Design Specification Outdoor Air Object Name
  Warehouse,                              !- Standards Building Type
  BlendA;                                 !- Standards Space Type

OS:Rendering:Color,
  {9529c320-a2aa-4da8-8a5f-74cb44d42880}, !- Handle
  Rendering Color 1,                      !- Name
  41,                                     !- Rendering Red Value
  31,                                     !- Rendering Green Value
  169;                                    !- Rendering Blue Value

OS:SpaceType,
  {08235974-90a8-4621-b705-80ad3e35cf3f}, !- Handle
  Warehouse|Office|DOE Ref 2004|ASHRAE 169-2006-5A, !- Name
  {8def1984-a650-4ada-b008-ba1e6df52e5f}, !- Default Construction Set Name
  {5a7476bf-4bb6-4f6e-a055-f241326edb51}, !- Default Schedule Set Name
  {3f3acc9a-b018-46fa-98cd-89265f11f5ed}, !- Group Rendering Name
  {8ef33a37-d21a-4be4-a364-5c75ebc602ae}, !- Design Specification Outdoor Air Object Name
  Warehouse,                              !- Standards Building Type
  Office;                                 !- Standards Space Type

OS:Rendering:Color,
  {3f3acc9a-b018-46fa-98cd-89265f11f5ed}, !- Handle
  Rendering Color 2,                      !- Name
  120,                                    !- Rendering Red Value
  230,                                    !- Rendering Green Value
  199;                                    !- Rendering Blue Value

OS:Schedule:Ruleset,
  {51dd27fe-64e2-4934-be84-34c63843a4cf}, !- Handle
  0700|1700|Warehouse|default|hoo,        !- Name
  {b31b3726-8825-4a10-95e2-019aa5df1881}, !- Schedule Type Limits Name
  {c034484b-597a-4083-90d1-91ef7717995d}, !- Default Day Schedule Name
  {27d8445d-becb-4812-8bc3-7bcb57f5daa3}, !- Summer Design Day Schedule Name
  {0e7723bc-520b-4631-a1b7-88153899c30a}; !- Winter Design Day Schedule Name

OS:Schedule:Day,
  {c034484b-597a-4083-90d1-91ef7717995d}, !- Handle
  0700|1700|Warehouse|default|hoo Schedule Week Day, !- Name
  {b31b3726-8825-4a10-95e2-019aa5df1881}, !- Schedule Type Limits Name
  ,                                       !- Interpolate to Timestep
  7,                                      !- Hour 1
  0,                                      !- Minute 1
  0,                                      !- Value Until Time 1
  17,                                     !- Hour 2
  0,                                      !- Minute 2
  1,                                      !- Value Until Time 2
  24,                                     !- Hour 3
  0,                                      !- Minute 3
  0;                                      !- Value Until Time 3

OS:Schedule:Day,
  {546f6232-2c25-4912-80e2-34459fda4549}, !- Handle
  Schedule Day 2,                         !- Name
  ,                                       !- Schedule Type Limits Name
  ,                                       !- Interpolate to Timestep
  24,                                     !- Hour 1
  0,                                      !- Minute 1
  0;                                      !- Value Until Time 1

OS:Schedule:Day,
  {0e7723bc-520b-4631-a1b7-88153899c30a}, !- Handle
  0700|1700|Warehouse|default|hoo Winter Design Day, !- Name
  {b31b3726-8825-4a10-95e2-019aa5df1881}, !- Schedule Type Limits Name
  ,                                       !- Interpolate to Timestep
  24,                                     !- Hour 1
  0,                                      !- Minute 1
  0;                                      !- Value Until Time 1

OS:Schedule:Day,
  {3a9950c5-cdc3-4591-bbd4-947e97c07c7c}, !- Handle
  Schedule Day 3,                         !- Name
  ,                                       !- Schedule Type Limits Name
  ,                                       !- Interpolate to Timestep
  24,                                     !- Hour 1
  0,                                      !- Minute 1
  0;                                      !- Value Until Time 1

OS:Schedule:Day,
  {27d8445d-becb-4812-8bc3-7bcb57f5daa3}, !- Handle
  0700|1700|Warehouse|default|hoo Summer Design Day, !- Name
  {b31b3726-8825-4a10-95e2-019aa5df1881}, !- Schedule Type Limits Name
  ,                                       !- Interpolate to Timestep
  24,                                     !- Hour 1
  0,                                      !- Minute 1
  1;                                      !- Value Until Time 1

OS:DefaultScheduleSet,
  {08ca7a47-3d96-4c16-a98a-0024b2820ffb}, !- Handle
  Building Hours of Operation,            !- Name
  {51dd27fe-64e2-4934-be84-34c63843a4cf}, !- Hours of Operation Schedule Name
  ,                                       !- Number of People Schedule Name
  ,                                       !- People Activity Level Schedule Name
  ,                                       !- Lighting Schedule Name
  ,                                       !- Electric Equipment Schedule Name
  ,                                       !- Gas Equipment Schedule Name
  ,                                       !- Hot Water Equipment Schedule Name
  ,                                       !- Infiltration Schedule Name
  ,                                       !- Steam Equipment Schedule Name
  ;                                       !- Other Equipment Schedule Name

OS:ScheduleTypeLimits,
  {b31b3726-8825-4a10-95e2-019aa5df1881}, !- Handle
  OnOff,                                  !- Name
  0,                                      !- Lower Limit Value {BasedOnField A4}
  1,                                      !- Upper Limit Value {BasedOnField A4}
  Discrete,                               !- Numeric Type
  Availability;                           !- Unit Type

OS:Schedule:Ruleset,
  {fc4c4e79-927d-4fd3-b306-eb4950acbab4}, !- Handle
  0700|1700|Warehouse|default|lighting,   !- Name
  {96cc2d12-d42b-4d3e-bca4-c6145e763216}, !- Schedule Type Limits Name
  {815ff83a-b355-4bd3-a84f-1d0097c7d8be}, !- Default Day Schedule Name
  {c34ef652-7d31-4597-ba43-564227f6558e}, !- Summer Design Day Schedule Name
  {cb0d2526-38ea-42c2-af12-b5cede39d547}; !- Winter Design Day Schedule Name

OS:ScheduleTypeLimits,
  {96cc2d12-d42b-4d3e-bca4-c6145e763216}, !- Handle
  Lights Schedule Type Limits,            !- Name
  0,                                      !- Lower Limit Value {BasedOnField A4}
  1,                                      !- Upper Limit Value {BasedOnField A4}
  Continuous,                             !- Numeric Type
  Dimensionless;                          !- Unit Type

OS:Schedule:Day,
  {815ff83a-b355-4bd3-a84f-1d0097c7d8be}, !- Handle
  0700|1700|Warehouse|default|lighting |default, !- Name
  {96cc2d12-d42b-4d3e-bca4-c6145e763216}, !- Schedule Type Limits Name
  ,                                       !- Interpolate to Timestep
  7,                                      !- Hour 1
  0,                                      !- Minute 1
  0.1,                                    !- Value Until Time 1
  8,                                      !- Hour 2
  0,                                      !- Minute 2
  0.4,                                    !- Value Until Time 2
  9,                                      !- Hour 3
  0,                                      !- Minute 3
  0.7,                                    !- Value Until Time 3
  12,                                     !- Hour 4
  0,                                      !- Minute 4
  0.9,                                    !- Value Until Time 4
  13,                                     !- Hour 5
  0,                                      !- Minute 5
  0.8,                                    !- Value Until Time 5
  17,                                     !- Hour 6
  0,                                      !- Minute 6
  0.9,                                    !- Value Until Time 6
  18,                                     !- Hour 7
  0,                                      !- Minute 7
  0.3,                                    !- Value Until Time 7
  24,                                     !- Hour 8
  0,                                      !- Minute 8
  0.1;                                    !- Value Until Time 8

OS:Schedule:Day,
  {c34ef652-7d31-4597-ba43-564227f6558e}, !- Handle
  0700|1700|Warehouse|default|lighting Summer Design Day, !- Name
  {96cc2d12-d42b-4d3e-bca4-c6145e763216}, !- Schedule Type Limits Name
  ,                                       !- Interpolate to Timestep
  7,                                      !- Hour 1
  0,                                      !- Minute 1
  0.1,                                    !- Value Until Time 1
  18,                                     !- Hour 2
  0,                                      !- Minute 2
  1,                                      !- Value Until Time 2
  24,                                     !- Hour 3
  0,                                      !- Minute 3
  0.1;                                    !- Value Until Time 3

OS:Schedule:Day,
  {cb0d2526-38ea-42c2-af12-b5cede39d547}, !- Handle
  0700|1700|Warehouse|default|lighting Winter Design Day, !- Name
  {96cc2d12-d42b-4d3e-bca4-c6145e763216}, !- Schedule Type Limits Name
  ,                                       !- Interpolate to Timestep
  24,                                     !- Hour 1
  0,                                      !- Minute 1
  0.1;                                    !- Value Until Time 1

OS:Schedule:Rule,
  {f886acff-3bb7-4aa2-acff-b2d67339ca68}, !- Handle
  0700|1700|Warehouse|default|lighting |1/1-12/31|Sat Rule, !- Name
  {fc4c4e79-927d-4fd3-b306-eb4950acbab4}, !- Schedule Ruleset Name
  0,                                      !- Rule Order
  {d569f8de-f57d-4779-8f45-575ed49eb975}, !- Day Schedule Name
  ,                                       !- Apply Sunday
  ,                                       !- Apply Monday
  ,                                       !- Apply Tuesday
  ,                                       !- Apply Wednesday
  ,                                       !- Apply Thursday
  ,                                       !- Apply Friday
  Yes,                                    !- Apply Saturday
  ,                                       !- Apply Holiday
  DateRange,                              !- Date Specification Type
  1,                                      !- Start Month
  1,                                      !- Start Day
  12,                                     !- End Month
  31;                                     !- End Day

OS:Schedule:Day,
  {d569f8de-f57d-4779-8f45-575ed49eb975}, !- Handle
  0700|1700|Warehouse|default|lighting |1/1-12/31|Sat, !- Name
  {96cc2d12-d42b-4d3e-bca4-c6145e763216}, !- Schedule Type Limits Name
  ,                                       !- Interpolate to Timestep
  9,                                      !- Hour 1
  0,                                      !- Minute 1
  0.1,                                    !- Value Until Time 1
  12,                                     !- Hour 2
  0,                                      !- Minute 2
  0.24,                                   !- Value Until Time 2
  24,                                     !- Hour 3
  0,                                      !- Minute 3
  0.1;                                    !- Value Until Time 3

OS:Schedule:Rule,
  {2e10f5cb-7334-4327-89ed-ee06ec354f07}, !- Handle
  0700|1700|Warehouse|default|lighting |1/1-12/31|Sun Rule, !- Name
  {fc4c4e79-927d-4fd3-b306-eb4950acbab4}, !- Schedule Ruleset Name
  1,                                      !- Rule Order
  {dc727cb5-54be-4b01-a1cf-740253ec74c5}, !- Day Schedule Name
  Yes,                                    !- Apply Sunday
  ,                                       !- Apply Monday
  ,                                       !- Apply Tuesday
  ,                                       !- Apply Wednesday
  ,                                       !- Apply Thursday
  ,                                       !- Apply Friday
  ,                                       !- Apply Saturday
  ,                                       !- Apply Holiday
  DateRange,                              !- Date Specification Type
  1,                                      !- Start Month
  1,                                      !- Start Day
  12,                                     !- End Month
  31;                                     !- End Day

OS:Schedule:Day,
  {dc727cb5-54be-4b01-a1cf-740253ec74c5}, !- Handle
  0700|1700|Warehouse|default|lighting |1/1-12/31|Sun, !- Name
  {96cc2d12-d42b-4d3e-bca4-c6145e763216}, !- Schedule Type Limits Name
  ,                                       !- Interpolate to Timestep
  24,                                     !- Hour 1
  0,                                      !- Minute 1
  0.1;                                    !- Value Until Time 1

OS:Schedule:Ruleset,
  {40ce04b0-9af7-455d-9bca-f38a5558cb5c}, !- Handle
  0700|1700|Warehouse|default|htg_setpoint, !- Name
  {5bf68ffd-e836-42f7-ba84-cae9351c64c3}, !- Schedule Type Limits Name
  {cd18b8a7-20ee-42b6-a020-d126b95d6afe}, !- Default Day Schedule Name
  {d5f9a167-d744-4a42-9017-6c5b6e14de4a}, !- Summer Design Day Schedule Name
  {aa8cadd5-ed7d-4641-b5d5-6b25ecddd35d}; !- Winter Design Day Schedule Name

OS:ScheduleTypeLimits,
  {5bf68ffd-e836-42f7-ba84-cae9351c64c3}, !- Handle
  Thermostat Heating Setpoint Schedule Type Limits, !- Name
  0,                                      !- Lower Limit Value {BasedOnField A4}
  100,                                    !- Upper Limit Value {BasedOnField A4}
  Continuous,                             !- Numeric Type
  Temperature;                            !- Unit Type

OS:Schedule:Day,
  {cd18b8a7-20ee-42b6-a020-d126b95d6afe}, !- Handle
  0700|1700|Warehouse|default|htg_setpoint |default, !- Name
  {5bf68ffd-e836-42f7-ba84-cae9351c64c3}, !- Schedule Type Limits Name
  ,                                       !- Interpolate to Timestep
  6,                                      !- Hour 1
  0,                                      !- Minute 1
  15.5000000000001,                       !- Value Until Time 1
  17,                                     !- Hour 2
  0,                                      !- Minute 2
  21.0000000000001,                       !- Value Until Time 2
  24,                                     !- Hour 3
  0,                                      !- Minute 3
  15.5000000000001;                       !- Value Until Time 3

OS:Schedule:Day,
  {d5f9a167-d744-4a42-9017-6c5b6e14de4a}, !- Handle
  0700|1700|Warehouse|default|htg_setpoint Summer Design Day, !- Name
  {5bf68ffd-e836-42f7-ba84-cae9351c64c3}, !- Schedule Type Limits Name
  ,                                       !- Interpolate to Timestep
  6,                                      !- Hour 1
  0,                                      !- Minute 1
  15.5000000000001,                       !- Value Until Time 1
  17,                                     !- Hour 2
  0,                                      !- Minute 2
  21.0000000000001,                       !- Value Until Time 2
  24,                                     !- Hour 3
  0,                                      !- Minute 3
  15.5000000000001;                       !- Value Until Time 3

OS:Schedule:Day,
  {aa8cadd5-ed7d-4641-b5d5-6b25ecddd35d}, !- Handle
  0700|1700|Warehouse|default|htg_setpoint Winter Design Day, !- Name
  {5bf68ffd-e836-42f7-ba84-cae9351c64c3}, !- Schedule Type Limits Name
  ,                                       !- Interpolate to Timestep
  24,                                     !- Hour 1
  0,                                      !- Minute 1
  15.5000000000001;                       !- Value Until Time 1

OS:Schedule:Rule,
  {232c1bf0-b0e1-4dd8-9652-c3e8ba973be0}, !- Handle
  0700|1700|Warehouse|default|htg_setpoint |1/1-12/31|Sat Rule, !- Name
  {40ce04b0-9af7-455d-9bca-f38a5558cb5c}, !- Schedule Ruleset Name
  0,                                      !- Rule Order
  {66149346-f9d1-41d5-8602-09828ff519e1}, !- Day Schedule Name
  ,                                       !- Apply Sunday
  ,                                       !- Apply Monday
  ,                                       !- Apply Tuesday
  ,                                       !- Apply Wednesday
  ,                                       !- Apply Thursday
  ,                                       !- Apply Friday
  Yes,                                    !- Apply Saturday
  ,                                       !- Apply Holiday
  DateRange,                              !- Date Specification Type
  1,                                      !- Start Month
  1,                                      !- Start Day
  12,                                     !- End Month
  31;                                     !- End Day

OS:Schedule:Day,
  {66149346-f9d1-41d5-8602-09828ff519e1}, !- Handle
  0700|1700|Warehouse|default|htg_setpoint |1/1-12/31|Sat, !- Name
  {5bf68ffd-e836-42f7-ba84-cae9351c64c3}, !- Schedule Type Limits Name
  ,                                       !- Interpolate to Timestep
  7,                                      !- Hour 1
  0,                                      !- Minute 1
  15.5000000000001,                       !- Value Until Time 1
  16,                                     !- Hour 2
  0,                                      !- Minute 2
  21.0000000000001,                       !- Value Until Time 2
  24,                                     !- Hour 3
  0,                                      !- Minute 3
  15.5000000000001;                       !- Value Until Time 3

OS:Schedule:Rule,
  {c805b420-8445-43e1-aa71-bc074eee4ed7}, !- Handle
  0700|1700|Warehouse|default|htg_setpoint |1/1-12/31|Sun Rule, !- Name
  {40ce04b0-9af7-455d-9bca-f38a5558cb5c}, !- Schedule Ruleset Name
  1,                                      !- Rule Order
  {97d30597-aea2-4269-a53e-9c43d9f8076a}, !- Day Schedule Name
  Yes,                                    !- Apply Sunday
  ,                                       !- Apply Monday
  ,                                       !- Apply Tuesday
  ,                                       !- Apply Wednesday
  ,                                       !- Apply Thursday
  ,                                       !- Apply Friday
  ,                                       !- Apply Saturday
  ,                                       !- Apply Holiday
  DateRange,                              !- Date Specification Type
  1,                                      !- Start Month
  1,                                      !- Start Day
  12,                                     !- End Month
  31;                                     !- End Day

OS:Schedule:Day,
  {97d30597-aea2-4269-a53e-9c43d9f8076a}, !- Handle
  0700|1700|Warehouse|default|htg_setpoint |1/1-12/31|Sun, !- Name
  {5bf68ffd-e836-42f7-ba84-cae9351c64c3}, !- Schedule Type Limits Name
  ,                                       !- Interpolate to Timestep
  24,                                     !- Hour 1
  0,                                      !- Minute 1
  15.5000000000001;                       !- Value Until Time 1

OS:Schedule:Ruleset,
  {a414a7db-68fa-4161-868b-9aa9d587f111}, !- Handle
  0700|1700|Warehouse|default|rh,         !- Name
  {61090a92-3df8-4f84-858e-060d3d1939dc}, !- Schedule Type Limits Name
  {a57cb411-5068-4cf4-a0c5-fb61db0c8808}, !- Default Day Schedule Name
  {0ca5aab7-4f84-46ef-9806-46c40b3639c6}, !- Summer Design Day Schedule Name
  {807f1968-34a9-4e78-9535-9c42e10e398f}; !- Winter Design Day Schedule Name

OS:ScheduleTypeLimits,
  {61090a92-3df8-4f84-858e-060d3d1939dc}, !- Handle
  Dimensionless Schedule Type Limits,     !- Name
  ,                                       !- Lower Limit Value {BasedOnField A4}
  ,                                       !- Upper Limit Value {BasedOnField A4}
  Continuous,                             !- Numeric Type
  Dimensionless;                          !- Unit Type

OS:Schedule:Day,
  {a57cb411-5068-4cf4-a0c5-fb61db0c8808}, !- Handle
  0700|1700|Warehouse|default|rh |default, !- Name
  {61090a92-3df8-4f84-858e-060d3d1939dc}, !- Schedule Type Limits Name
  ,                                       !- Interpolate to Timestep
  24,                                     !- Hour 1
  0,                                      !- Minute 1
  50;                                     !- Value Until Time 1

OS:Schedule:Day,
  {0ca5aab7-4f84-46ef-9806-46c40b3639c6}, !- Handle
  0700|1700|Warehouse|default|rh Summer Design Day, !- Name
  {61090a92-3df8-4f84-858e-060d3d1939dc}, !- Schedule Type Limits Name
  ,                                       !- Interpolate to Timestep
  24,                                     !- Hour 1
  0,                                      !- Minute 1
  50;                                     !- Value Until Time 1

OS:Schedule:Day,
  {807f1968-34a9-4e78-9535-9c42e10e398f}, !- Handle
  0700|1700|Warehouse|default|rh Winter Design Day, !- Name
  {61090a92-3df8-4f84-858e-060d3d1939dc}, !- Schedule Type Limits Name
  ,                                       !- Interpolate to Timestep
  24,                                     !- Hour 1
  0,                                      !- Minute 1
  50;                                     !- Value Until Time 1

OS:Schedule:Ruleset,
  {ae228446-1a51-4da3-b8fc-6ed6a418327f}, !- Handle
  0700|1700|Warehouse|Bulk|htg_setpoint,  !- Name
  {5bf68ffd-e836-42f7-ba84-cae9351c64c3}, !- Schedule Type Limits Name
  {b29e36e1-4d20-40da-b952-a113a8b68cb8}, !- Default Day Schedule Name
  {7ab91a9b-7789-4de5-bf83-a8424a2558a3}, !- Summer Design Day Schedule Name
  {df2cc3bf-f0d5-4c6e-9bc6-195788179118}; !- Winter Design Day Schedule Name

OS:Schedule:Day,
  {b29e36e1-4d20-40da-b952-a113a8b68cb8}, !- Handle
  0700|1700|Warehouse|Bulk|htg_setpoint |default, !- Name
  {5bf68ffd-e836-42f7-ba84-cae9351c64c3}, !- Schedule Type Limits Name
  ,                                       !- Interpolate to Timestep
  24,                                     !- Hour 1
  0,                                      !- Minute 1
  7.20000000000005;                       !- Value Until Time 1

OS:Schedule:Day,
  {7ab91a9b-7789-4de5-bf83-a8424a2558a3}, !- Handle
  0700|1700|Warehouse|Bulk|htg_setpoint Summer Design Day, !- Name
  {5bf68ffd-e836-42f7-ba84-cae9351c64c3}, !- Schedule Type Limits Name
  ,                                       !- Interpolate to Timestep